* File: Register_File_new.pex.netlist
* Created: Sun Oct 30 13:33:16 2016
* Program "Calibre xRC"
* Version "v2015.2_36.27"
* 
.include "Register_File_new.pex.netlist.pex"
.subckt Register_File_new  VSS! DATA_OUT<8> DATA_OUT<9> DATA_OUT<10>
+ DATA_OUT<11> DATA_OUT<12> DATA_OUT<13> DATA_OUT<14> DATA_OUT<15> DATA_OUT<0>
+ DATA_OUT<1> DATA_OUT<2> DATA_OUT<3> DATA_OUT<4> DATA_OUT<5> DATA_OUT<6>
+ DATA_OUT<7> VDD! ADDR_RD<0> ADDR_RD<1> ADDR_RD<2> ADDR_RD<3> RE ADDR_WR<0>
+ ADDR_WR<1> ADDR_WR<2> ADDR_WR<3> WE CLK DATA_IN<12> DATA_IN<14> DATA_IN<15>
+ DATA_IN<10> DATA_IN<9> DATA_IN<13> DATA_IN<11> DATA_IN<8> DATA_IN<4>
+ DATA_IN<6> DATA_IN<7> DATA_IN<2> DATA_IN<1> DATA_IN<5> DATA_IN<3> DATA_IN<0>
+ PRECHARGE
* 
* PRECHARGE	PRECHARGE
* DATA_IN<0>	DATA_IN<0>
* DATA_IN<3>	DATA_IN<3>
* DATA_IN<5>	DATA_IN<5>
* DATA_IN<1>	DATA_IN<1>
* DATA_IN<2>	DATA_IN<2>
* DATA_IN<7>	DATA_IN<7>
* DATA_IN<6>	DATA_IN<6>
* DATA_IN<4>	DATA_IN<4>
* DATA_IN<8>	DATA_IN<8>
* DATA_IN<11>	DATA_IN<11>
* DATA_IN<13>	DATA_IN<13>
* DATA_IN<9>	DATA_IN<9>
* DATA_IN<10>	DATA_IN<10>
* DATA_IN<15>	DATA_IN<15>
* DATA_IN<14>	DATA_IN<14>
* DATA_IN<12>	DATA_IN<12>
* CLK	CLK
* WE	WE
* ADDR_WR<3>	ADDR_WR<3>
* ADDR_WR<2>	ADDR_WR<2>
* ADDR_WR<1>	ADDR_WR<1>
* ADDR_WR<0>	ADDR_WR<0>
* RE	RE
* ADDR_RD<3>	ADDR_RD<3>
* ADDR_RD<2>	ADDR_RD<2>
* ADDR_RD<1>	ADDR_RD<1>
* ADDR_RD<0>	ADDR_RD<0>
* DATA_OUT<7>	DATA_OUT<7>
* DATA_OUT<6>	DATA_OUT<6>
* DATA_OUT<5>	DATA_OUT<5>
* DATA_OUT<4>	DATA_OUT<4>
* DATA_OUT<3>	DATA_OUT<3>
* DATA_OUT<2>	DATA_OUT<2>
* DATA_OUT<1>	DATA_OUT<1>
* DATA_OUT<0>	DATA_OUT<0>
* DATA_OUT<15>	DATA_OUT<15>
* DATA_OUT<14>	DATA_OUT<14>
* DATA_OUT<13>	DATA_OUT<13>
* DATA_OUT<12>	DATA_OUT<12>
* DATA_OUT<11>	DATA_OUT<11>
* DATA_OUT<10>	DATA_OUT<10>
* DATA_OUT<9>	DATA_OUT<9>
* DATA_OUT<8>	DATA_OUT<8>
mXI20<8>/XI14/XI20/MM3 VSS! N_XI20<8>/XI14/WEN_XI20<8>/XI14/XI20/MM3_g
+ N_XI20<8>/NET9_XI20<8>/XI14/XI20/MM3_s VSS! NMOS_RVT L=2e-08 W=5.4e-08 NFIN=2
+ $X=12.267 $Y=2.7575
mXI20<8>/XI14/XI20/MM5 VSS! N_XI20<8>/XI14/DNN_XI20<8>/XI14/XI20/MM5_g
+ N_XI20<8>/NET9_XI20<8>/XI14/XI20/MM5_s VSS! NMOS_RVT L=2e-08 W=5.4e-08 NFIN=2
+ $X=12.321 $Y=2.7575
mXI20<8>/XI14/XI20/MM12 VSS! N_XI20<8>/XI14/D_XI20<8>/XI14/XI20/MM12_g
+ N_XI20<8>/NET10_XI20<8>/XI14/XI20/MM12_s VSS! NMOS_RVT L=2e-08 W=5.4e-08
+ NFIN=2 $X=12.375 $Y=2.7575
mXI20<8>/XI14/XI20/MM11 VSS! N_XI20<8>/XI14/WEN_XI20<8>/XI14/XI20/MM11_g
+ N_XI20<8>/NET10_XI20<8>/XI14/XI20/MM11_s VSS! NMOS_RVT L=2e-08 W=5.4e-08
+ NFIN=2 $X=12.429 $Y=2.7575
mXI20<8>/XI14/XI18/MM0 N_DATA_OUT<8>_XI20<8>/XI14/XI18/MM0_d
+ N_XI20<8>/XI14/XI18/LH_XI20<8>/XI14/XI18/MM0_g VSS! VSS! NMOS_RVT L=2e-08
+ W=8.1e-08 NFIN=3 $X=13.023 $Y=2.7845
mXI20<8>/XI14/XI18/MM6 N_XI20<8>/XI14/XI18/LS_XI20<8>/XI14/XI18/MM6_d
+ N_XI20<8>/XI14/XI18/LH_XI20<8>/XI14/XI18/MM6_g VSS! VSS! NMOS_RVT L=2e-08
+ W=2.7e-08 NFIN=1 $X=13.185 $Y=2.7575
mXI20<8>/XI14/XI18/MM8 N_XI20<8>/XI14/XI18/PD3_XI20<8>/XI14/XI18/MM8_d
+ N_XI20<8>/XI14/XI18/LS_XI20<8>/XI14/XI18/MM8_g VSS! VSS! NMOS_RVT L=2e-08
+ W=2.7e-08 NFIN=1 $X=13.239 $Y=2.7575
mXI20<8>/XI14/XI18/MM9 N_XI20<8>/XI14/XI18/LH_XI20<8>/XI14/XI18/MM9_d
+ N_XI20<8>/XI14/XI18/CLKB_XI20<8>/XI14/XI18/MM9_g
+ N_XI20<8>/XI14/XI18/PD3_XI20<8>/XI14/XI18/MM9_s VSS! NMOS_RVT L=2e-08
+ W=2.7e-08 NFIN=1 $X=13.293 $Y=2.7575
mXI20<8>/XI14/XI18/MM4 N_XI20<8>/XI14/XI18/LH_XI20<8>/XI14/XI18/MM4_d
+ N_XI20<8>/XI14/XI18/CLKN_XI20<8>/XI14/XI18/MM4_g
+ N_XI20<8>/XI14/XI18/PD1_XI20<8>/XI14/XI18/MM4_s VSS! NMOS_RVT L=2e-08
+ W=8.1e-08 NFIN=3 $X=13.347 $Y=2.7575
mXI20<8>/XI14/XI18/MM5 N_XI20<8>/XI14/XI18/PD1_XI20<8>/XI14/XI18/MM5_d
+ N_XI20<8>/NET8_XI20<8>/XI14/XI18/MM5_g
+ N_XI20<8>/XI14/XI18/PD0_XI20<8>/XI14/XI18/MM5_s VSS! NMOS_RVT L=2e-08
+ W=8.1e-08 NFIN=3 $X=13.455 $Y=2.7575
mXI20<8>/XI14/XI18/MM12 N_XI20<8>/XI14/XI18/PD0_XI20<8>/XI14/XI18/MM12_d
+ N_XI20<8>/NET11_XI20<8>/XI14/XI18/MM12_g VSS! VSS! NMOS_RVT L=2e-08 W=8.1e-08
+ NFIN=3 $X=13.509 $Y=2.7575
mXI20<8>/XI14/XI18/MM23 N_XI20<8>/XI14/XI18/CLKB_XI20<8>/XI14/XI18/MM23_d
+ N_XI20<8>/XI14/XI18/CLKN_XI20<8>/XI14/XI18/MM23_g VSS! VSS! NMOS_RVT L=2e-08
+ W=5.4e-08 NFIN=2 $X=13.671 $Y=2.7575
mXI20<8>/XI14/XI18/MM20 N_XI20<8>/XI14/XI18/CLKN_XI20<8>/XI14/XI18/MM20_d
+ N_CLK_XI20<8>/XI14/XI18/MM20_g VSS! VSS! NMOS_RVT L=2e-08 W=5.4e-08 NFIN=2
+ $X=13.725 $Y=2.7575
mXI20<8>/XI14/XI20/MM16 N_XI20<8>/XI14/PRECHN_XI20<8>/XI14/XI20/MM16_d
+ N_PRECHARGE_XI20<8>/XI14/XI20/MM16_g VSS! VSS! NMOS_RVT L=2e-08 W=2.7e-08
+ NFIN=1 $X=14.319 $Y=2.7575
mXI20<8>/XI14/XI20/MM0 N_XI20<8>/XI14/WEN_XI20<8>/XI14/XI20/MM0_d
+ N_WE_XI20<8>/XI14/XI20/MM0_g VSS! VSS! NMOS_RVT L=2e-08 W=2.7e-08 NFIN=1
+ $X=14.373 $Y=2.7575
mXI20<8>/XI14/XI20/MM6 N_XI20<8>/XI14/DNN_XI20<8>/XI14/XI20/MM6_d
+ N_XI20<8>/XI14/D_XI20<8>/XI14/XI20/MM6_g VSS! VSS! NMOS_RVT L=2e-08 W=2.7e-08
+ NFIN=1 $X=14.535 $Y=2.7575
mXI20<8>/XI14/XI20/MM14 N_XI20<8>/XI14/D_XI20<8>/XI14/XI20/MM14_d
+ N_DATA_IN<8>_XI20<8>/XI14/XI20/MM14_g VSS! VSS! NMOS_RVT L=2e-08 W=2.7e-08
+ NFIN=1 $X=14.589 $Y=2.7575
mXI20<8>/XI14/XI19/MM11 VSS! N_XI20<8>/XI14/WEN_XI20<8>/XI14/XI19/MM11_g
+ N_XI20<8>/NET20_XI20<8>/XI14/XI19/MM11_s VSS! NMOS_RVT L=2e-08 W=5.4e-08
+ NFIN=2 $X=14.751 $Y=2.7575
mXI20<8>/XI14/XI19/MM12 VSS! N_XI20<8>/XI14/D_XI20<8>/XI14/XI19/MM12_g
+ N_XI20<8>/NET20_XI20<8>/XI14/XI19/MM12_s VSS! NMOS_RVT L=2e-08 W=5.4e-08
+ NFIN=2 $X=14.805 $Y=2.7575
mXI20<8>/XI14/XI19/MM5 VSS! N_XI20<8>/XI14/DNN_XI20<8>/XI14/XI19/MM5_g
+ N_XI20<8>/NET12_XI20<8>/XI14/XI19/MM5_s VSS! NMOS_RVT L=2e-08 W=5.4e-08 NFIN=2
+ $X=14.859 $Y=2.7575
mXI20<8>/XI14/XI19/MM3 VSS! N_XI20<8>/XI14/WEN_XI20<8>/XI14/XI19/MM3_g
+ N_XI20<8>/NET12_XI20<8>/XI14/XI19/MM3_s VSS! NMOS_RVT L=2e-08 W=5.4e-08 NFIN=2
+ $X=14.913 $Y=2.7575
mXI20<8>/XI14/XI20/MM2 N_XI20<8>/XI14/XI20/NET066_XI20<8>/XI14/XI20/MM2_d
+ N_XI20<8>/XI14/WEN_XI20<8>/XI14/XI20/MM2_g
+ N_XI20<8>/NET9_XI20<8>/XI14/XI20/MM2_s VDD! PMOS_RVT L=2e-08 W=1.08e-07 NFIN=4
+ $X=12.267 $Y=2.5955
mXI20<8>/XI14/XI20/MM4 VDD! N_XI20<8>/XI14/DNN_XI20<8>/XI14/XI20/MM4_g
+ N_XI20<8>/XI14/XI20/NET066_XI20<8>/XI14/XI20/MM4_s VDD! PMOS_RVT L=2e-08
+ W=1.08e-07 NFIN=4 $X=12.321 $Y=2.5955
mXI20<8>/XI14/XI20/MM8 VDD! N_XI20<8>/XI14/D_XI20<8>/XI14/XI20/MM8_g
+ N_XI20<8>/XI14/XI20/NET065_XI20<8>/XI14/XI20/MM8_s VDD! PMOS_RVT L=2e-08
+ W=1.08e-07 NFIN=4 $X=12.375 $Y=2.5955
mXI20<8>/XI14/XI20/MM9 N_XI20<8>/XI14/XI20/NET065_XI20<8>/XI14/XI20/MM9_d
+ N_XI20<8>/XI14/WEN_XI20<8>/XI14/XI20/MM9_g
+ N_XI20<8>/NET10_XI20<8>/XI14/XI20/MM9_s VDD! PMOS_RVT L=2e-08 W=1.08e-07
+ NFIN=4 $X=12.429 $Y=2.5955
mXI20<8>/XI14/XI18/MM2 N_DATA_OUT<8>_XI20<8>/XI14/XI18/MM2_d
+ N_XI20<8>/XI14/XI18/LH_XI20<8>/XI14/XI18/MM2_g VDD! VDD! PMOS_RVT L=2e-08
+ W=8.1e-08 NFIN=3 $X=13.023 $Y=2.5955
mXI20<8>/XI14/XI18/MM7 N_XI20<8>/XI14/XI18/LS_XI20<8>/XI14/XI18/MM7_d
+ N_XI20<8>/XI14/XI18/LH_XI20<8>/XI14/XI18/MM7_g VDD! VDD! PMOS_RVT L=2e-08
+ W=2.7e-08 NFIN=1 $X=13.185 $Y=2.5685
mXI20<8>/XI14/XI18/MM11 N_XI20<8>/XI14/XI18/PD2_XI20<8>/XI14/XI18/MM11_d
+ N_XI20<8>/XI14/XI18/LS_XI20<8>/XI14/XI18/MM11_g VDD! VDD! PMOS_RVT L=2e-08
+ W=2.7e-08 NFIN=1 $X=13.239 $Y=2.5685
mXI20<8>/XI14/XI18/MM10 N_XI20<8>/XI14/XI18/LH_XI20<8>/XI14/XI18/MM10_d
+ N_XI20<8>/XI14/XI18/CLKN_XI20<8>/XI14/XI18/MM10_g
+ N_XI20<8>/XI14/XI18/PD2_XI20<8>/XI14/XI18/MM10_s VDD! PMOS_RVT L=2e-08
+ W=2.7e-08 NFIN=1 $X=13.347 $Y=2.5685
mXI20<8>/XI14/XI18/MM1 N_XI20<8>/XI14/XI18/LH_XI20<8>/XI14/XI18/MM1_d
+ N_XI20<8>/XI14/XI18/CLKB_XI20<8>/XI14/XI18/MM1_g
+ N_XI20<8>/XI14/XI18/PU1_XI20<8>/XI14/XI18/MM1_s VDD! PMOS_RVT L=2e-08
+ W=8.1e-08 NFIN=3 $X=13.401 $Y=2.5955
mXI20<8>/XI14/XI18/MM3 N_XI20<8>/XI14/XI18/PU1_XI20<8>/XI14/XI18/MM3_d
+ N_XI20<8>/NET8_XI20<8>/XI14/XI18/MM3_g VDD! VDD! PMOS_RVT L=2e-08 W=8.1e-08
+ NFIN=3 $X=13.455 $Y=2.5955
mXI20<8>/XI14/XI18/MM13 N_XI20<8>/XI14/XI18/PU1_XI20<8>/XI14/XI18/MM13_d
+ N_XI20<8>/NET11_XI20<8>/XI14/XI18/MM13_g VDD! VDD! PMOS_RVT L=2e-08 W=8.1e-08
+ NFIN=3 $X=13.509 $Y=2.5955
mXI20<8>/XI14/XI18/MM22 N_XI20<8>/XI14/XI18/CLKB_XI20<8>/XI14/XI18/MM22_d
+ N_XI20<8>/XI14/XI18/CLKN_XI20<8>/XI14/XI18/MM22_g VDD! VDD! PMOS_RVT L=2e-08
+ W=5.4e-08 NFIN=2 $X=13.671 $Y=2.5955
mXI20<8>/XI14/XI18/MM21 N_XI20<8>/XI14/XI18/CLKN_XI20<8>/XI14/XI18/MM21_d
+ N_CLK_XI20<8>/XI14/XI18/MM21_g VDD! VDD! PMOS_RVT L=2e-08 W=5.4e-08 NFIN=2
+ $X=13.725 $Y=2.5955
mXI20<8>/XI14/XI20/MM17 N_XI20<8>/XI14/PRECHN_XI20<8>/XI14/XI20/MM17_d
+ N_PRECHARGE_XI20<8>/XI14/XI20/MM17_g VDD! VDD! PMOS_RVT L=2e-08 W=2.7e-08
+ NFIN=1 $X=14.319 $Y=2.5415
mXI20<8>/XI14/XI20/MM1 N_XI20<8>/XI14/WEN_XI20<8>/XI14/XI20/MM1_d
+ N_WE_XI20<8>/XI14/XI20/MM1_g VDD! VDD! PMOS_RVT L=2e-08 W=2.7e-08 NFIN=1
+ $X=14.373 $Y=2.5415
mXI20<8>/XI14/XI20/MM7 N_XI20<8>/XI14/DNN_XI20<8>/XI14/XI20/MM7_d
+ N_XI20<8>/XI14/D_XI20<8>/XI14/XI20/MM7_g VDD! VDD! PMOS_RVT L=2e-08 W=2.7e-08
+ NFIN=1 $X=14.535 $Y=2.5415
mXI20<8>/XI14/XI20/MM15 N_XI20<8>/XI14/D_XI20<8>/XI14/XI20/MM15_d
+ N_DATA_IN<8>_XI20<8>/XI14/XI20/MM15_g VDD! VDD! PMOS_RVT L=2e-08 W=2.7e-08
+ NFIN=1 $X=14.589 $Y=2.5415
mXI20<8>/XI14/XI19/MM9 N_XI20<8>/XI14/XI19/NET065_XI20<8>/XI14/XI19/MM9_d
+ N_XI20<8>/XI14/WEN_XI20<8>/XI14/XI19/MM9_g
+ N_XI20<8>/NET20_XI20<8>/XI14/XI19/MM9_s VDD! PMOS_RVT L=2e-08 W=1.08e-07
+ NFIN=4 $X=14.751 $Y=2.5955
mXI20<8>/XI14/XI19/MM8 VDD! N_XI20<8>/XI14/D_XI20<8>/XI14/XI19/MM8_g
+ N_XI20<8>/XI14/XI19/NET065_XI20<8>/XI14/XI19/MM8_s VDD! PMOS_RVT L=2e-08
+ W=1.08e-07 NFIN=4 $X=14.805 $Y=2.5955
mXI20<8>/XI14/XI19/MM4 VDD! N_XI20<8>/XI14/DNN_XI20<8>/XI14/XI19/MM4_g
+ N_XI20<8>/XI14/XI19/NET066_XI20<8>/XI14/XI19/MM4_s VDD! PMOS_RVT L=2e-08
+ W=1.08e-07 NFIN=4 $X=14.859 $Y=2.5955
mXI20<8>/XI14/XI19/MM2 N_XI20<8>/XI14/XI19/NET066_XI20<8>/XI14/XI19/MM2_d
+ N_XI20<8>/XI14/WEN_XI20<8>/XI14/XI19/MM2_g
+ N_XI20<8>/NET12_XI20<8>/XI14/XI19/MM2_s VDD! PMOS_RVT L=2e-08 W=1.08e-07
+ NFIN=4 $X=14.913 $Y=2.5955
mXI20<8>/XI16/Xd<1>/MM1 VSS! VSS! N_XI20<8>/NET10_XI20<8>/XI16/Xd<1>/MM1_s VSS!
+ NMOS_SRAM L=2e-08 W=5.4e-08 NFIN=2 $X=11.099 $Y=2.4605
mXI20<15>/XI15/Xd<1>/MM9 VSS! VSS! VSS! VSS! NMOS_SRAM L=2e-08 W=5.4e-08 NFIN=2
+ $X=11.099 $Y=2.6495
mXI20<15>/XI15/Xd<1>/MM0 VSS! VSS! VDD! VDD! PMOS_SRAM L=2e-08 W=2.7e-08 NFIN=1
+ $X=11.099 $Y=2.5955
mXI20<8>/XI16/Xd<0>/MM1 VSS! VSS! N_XI20<8>/NET10_XI20<8>/XI16/Xd<0>/MM1_s VSS!
+ NMOS_SRAM L=2e-08 W=5.4e-08 NFIN=2 $X=11.997 $Y=2.4605
mXI20<15>/XI15/Xd<0>/MM9 VSS! VSS! VSS! VSS! NMOS_SRAM L=2e-08 W=5.4e-08 NFIN=2
+ $X=11.997 $Y=2.6495
mXI20<15>/XI15/Xd<0>/MM0 VSS! VSS! VDD! VDD! PMOS_SRAM L=2e-08 W=2.7e-08 NFIN=1
+ $X=11.997 $Y=2.5955
mXI20<8>/XI16/Xs0c<7>/MM12
+ N_XI20<8>/XI16/XS0C<7>/BITN_XI20<8>/XI16/Xs0c<7>/MM12_d
+ N_WWL<7>_XI20<8>/XI16/Xs0c<7>/MM12_g
+ N_XI20<8>/NET10_XI20<8>/XI16/Xs0c<7>/MM12_s VSS! NMOS_SRAM L=2e-08 W=5.4e-08
+ NFIN=2 $X=11.133 $Y=2.4605
mXI20<8>/XI16/Xs0c<7>/MM10
+ N_XI20<8>/XI16/XS0C<7>/BIT_XI20<8>/XI16/Xs0c<7>/MM10_d
+ N_XI20<8>/XI16/XS0C<7>/BITN_XI20<8>/XI16/Xs0c<7>/MM10_g VSS! VSS! NMOS_SRAM
+ L=2e-08 W=5.4e-08 NFIN=2 $X=11.133 $Y=2.6495
mXI20<8>/XI16/Xs0c<7>/MM7
+ N_XI20<8>/XI16/XS0C<7>/NET38_XI20<8>/XI16/Xs0c<7>/MM7_d
+ N_XI20<8>/XI16/XS0C<7>/BITN_XI20<8>/XI16/Xs0c<7>/MM7_g VSS! VSS! NMOS_SRAM
+ L=2e-08 W=5.4e-08 NFIN=2 $X=11.133 $Y=2.7575
mXI20<8>/XI16/Xs0c<7>/MM9 N_XI20<8>/XI16/XS0C<7>/BITN_XI20<8>/XI16/Xs0c<7>/MM9_d
+ N_XI20<8>/XI16/XS0C<7>/BIT_XI20<8>/XI16/Xs0c<7>/MM9_g VSS! VSS! NMOS_SRAM
+ L=2e-08 W=5.4e-08 NFIN=2 $X=11.187 $Y=2.4605
mXI20<8>/XI16/Xs0c<7>/MM11 N_XI20<8>/NET9_XI20<8>/XI16/Xs0c<7>/MM11_d
+ N_WWL<7>_XI20<8>/XI16/Xs0c<7>/MM11_g
+ N_XI20<8>/XI16/XS0C<7>/BIT_XI20<8>/XI16/Xs0c<7>/MM11_s VSS! NMOS_SRAM L=2e-08
+ W=5.4e-08 NFIN=2 $X=11.187 $Y=2.6495
mXI20<8>/XI16/Xs0c<7>/MM8 N_XI20<8>/NET8_XI20<8>/XI16/Xs0c<7>/MM8_d
+ N_RWL<7>_XI20<8>/XI16/Xs0c<7>/MM8_g
+ N_XI20<8>/XI16/XS0C<7>/NET38_XI20<8>/XI16/Xs0c<7>/MM8_s VSS! NMOS_SRAM L=2e-08
+ W=5.4e-08 NFIN=2 $X=11.187 $Y=2.7575
mXI20<8>/XI16/Xs0c<7>/MM1 N_XI20<8>/XI16/XS0C<7>/BIT_XI20<8>/XI16/Xs0c<7>/MM1_d
+ N_XI20<8>/XI16/XS0C<7>/BITN_XI20<8>/XI16/Xs0c<7>/MM1_g VDD! VDD! PMOS_SRAM
+ L=2e-08 W=2.7e-08 NFIN=1 $X=11.133 $Y=2.5955
mXI20<8>/XI16/Xs0c<7>/MM0 N_XI20<8>/XI16/XS0C<7>/BITN_XI20<8>/XI16/Xs0c<7>/MM0_d
+ N_XI20<8>/XI16/XS0C<7>/BIT_XI20<8>/XI16/Xs0c<7>/MM0_g VDD! VDD! PMOS_SRAM
+ L=2e-08 W=2.7e-08 NFIN=1 $X=11.187 $Y=2.5415
mXI20<8>/XI16/Xs0c<6>/MM12
+ N_XI20<8>/XI16/XS0C<6>/BITN_XI20<8>/XI16/Xs0c<6>/MM12_d
+ N_WWL<6>_XI20<8>/XI16/Xs0c<6>/MM12_g
+ N_XI20<8>/NET10_XI20<8>/XI16/Xs0c<6>/MM12_s VSS! NMOS_SRAM L=2e-08 W=5.4e-08
+ NFIN=2 $X=11.315 $Y=2.4605
mXI20<8>/XI16/Xs0c<6>/MM10
+ N_XI20<8>/XI16/XS0C<6>/BIT_XI20<8>/XI16/Xs0c<6>/MM10_d
+ N_XI20<8>/XI16/XS0C<6>/BITN_XI20<8>/XI16/Xs0c<6>/MM10_g VSS! VSS! NMOS_SRAM
+ L=2e-08 W=5.4e-08 NFIN=2 $X=11.315 $Y=2.6495
mXI20<8>/XI16/Xs0c<6>/MM7
+ N_XI20<8>/XI16/XS0C<6>/NET38_XI20<8>/XI16/Xs0c<6>/MM7_d
+ N_XI20<8>/XI16/XS0C<6>/BITN_XI20<8>/XI16/Xs0c<6>/MM7_g VSS! VSS! NMOS_SRAM
+ L=2e-08 W=5.4e-08 NFIN=2 $X=11.315 $Y=2.7575
mXI20<8>/XI16/Xs0c<6>/MM9 N_XI20<8>/XI16/XS0C<6>/BITN_XI20<8>/XI16/Xs0c<6>/MM9_d
+ N_XI20<8>/XI16/XS0C<6>/BIT_XI20<8>/XI16/Xs0c<6>/MM9_g VSS! VSS! NMOS_SRAM
+ L=2e-08 W=5.4e-08 NFIN=2 $X=11.261 $Y=2.4605
mXI20<8>/XI16/Xs0c<6>/MM11 N_XI20<8>/NET9_XI20<8>/XI16/Xs0c<6>/MM11_d
+ N_WWL<6>_XI20<8>/XI16/Xs0c<6>/MM11_g
+ N_XI20<8>/XI16/XS0C<6>/BIT_XI20<8>/XI16/Xs0c<6>/MM11_s VSS! NMOS_SRAM L=2e-08
+ W=5.4e-08 NFIN=2 $X=11.261 $Y=2.6495
mXI20<8>/XI16/Xs0c<6>/MM8 N_XI20<8>/NET8_XI20<8>/XI16/Xs0c<6>/MM8_d
+ N_RWL<6>_XI20<8>/XI16/Xs0c<6>/MM8_g
+ N_XI20<8>/XI16/XS0C<6>/NET38_XI20<8>/XI16/Xs0c<6>/MM8_s VSS! NMOS_SRAM L=2e-08
+ W=5.4e-08 NFIN=2 $X=11.261 $Y=2.7575
mXI20<8>/XI16/Xs0c<6>/MM1 N_XI20<8>/XI16/XS0C<6>/BIT_XI20<8>/XI16/Xs0c<6>/MM1_d
+ N_XI20<8>/XI16/XS0C<6>/BITN_XI20<8>/XI16/Xs0c<6>/MM1_g VDD! VDD! PMOS_SRAM
+ L=2e-08 W=2.7e-08 NFIN=1 $X=11.315 $Y=2.5955
mXI20<8>/XI16/Xs0c<6>/MM0 N_XI20<8>/XI16/XS0C<6>/BITN_XI20<8>/XI16/Xs0c<6>/MM0_d
+ N_XI20<8>/XI16/XS0C<6>/BIT_XI20<8>/XI16/Xs0c<6>/MM0_g VDD! VDD! PMOS_SRAM
+ L=2e-08 W=2.7e-08 NFIN=1 $X=11.261 $Y=2.5415
mXI20<8>/XI16/Xs0c<5>/MM12
+ N_XI20<8>/XI16/XS0C<5>/BITN_XI20<8>/XI16/Xs0c<5>/MM12_d
+ N_WWL<5>_XI20<8>/XI16/Xs0c<5>/MM12_g
+ N_XI20<8>/NET10_XI20<8>/XI16/Xs0c<5>/MM12_s VSS! NMOS_SRAM L=2e-08 W=5.4e-08
+ NFIN=2 $X=11.349 $Y=2.4605
mXI20<8>/XI16/Xs0c<5>/MM10
+ N_XI20<8>/XI16/XS0C<5>/BIT_XI20<8>/XI16/Xs0c<5>/MM10_d
+ N_XI20<8>/XI16/XS0C<5>/BITN_XI20<8>/XI16/Xs0c<5>/MM10_g VSS! VSS! NMOS_SRAM
+ L=2e-08 W=5.4e-08 NFIN=2 $X=11.349 $Y=2.6495
mXI20<8>/XI16/Xs0c<5>/MM7
+ N_XI20<8>/XI16/XS0C<5>/NET38_XI20<8>/XI16/Xs0c<5>/MM7_d
+ N_XI20<8>/XI16/XS0C<5>/BITN_XI20<8>/XI16/Xs0c<5>/MM7_g VSS! VSS! NMOS_SRAM
+ L=2e-08 W=5.4e-08 NFIN=2 $X=11.349 $Y=2.7575
mXI20<8>/XI16/Xs0c<5>/MM9 N_XI20<8>/XI16/XS0C<5>/BITN_XI20<8>/XI16/Xs0c<5>/MM9_d
+ N_XI20<8>/XI16/XS0C<5>/BIT_XI20<8>/XI16/Xs0c<5>/MM9_g VSS! VSS! NMOS_SRAM
+ L=2e-08 W=5.4e-08 NFIN=2 $X=11.403 $Y=2.4605
mXI20<8>/XI16/Xs0c<5>/MM11 N_XI20<8>/NET9_XI20<8>/XI16/Xs0c<5>/MM11_d
+ N_WWL<5>_XI20<8>/XI16/Xs0c<5>/MM11_g
+ N_XI20<8>/XI16/XS0C<5>/BIT_XI20<8>/XI16/Xs0c<5>/MM11_s VSS! NMOS_SRAM L=2e-08
+ W=5.4e-08 NFIN=2 $X=11.403 $Y=2.6495
mXI20<8>/XI16/Xs0c<5>/MM8 N_XI20<8>/NET8_XI20<8>/XI16/Xs0c<5>/MM8_d
+ N_RWL<5>_XI20<8>/XI16/Xs0c<5>/MM8_g
+ N_XI20<8>/XI16/XS0C<5>/NET38_XI20<8>/XI16/Xs0c<5>/MM8_s VSS! NMOS_SRAM L=2e-08
+ W=5.4e-08 NFIN=2 $X=11.403 $Y=2.7575
mXI20<8>/XI16/Xs0c<5>/MM1 N_XI20<8>/XI16/XS0C<5>/BIT_XI20<8>/XI16/Xs0c<5>/MM1_d
+ N_XI20<8>/XI16/XS0C<5>/BITN_XI20<8>/XI16/Xs0c<5>/MM1_g VDD! VDD! PMOS_SRAM
+ L=2e-08 W=2.7e-08 NFIN=1 $X=11.349 $Y=2.5955
mXI20<8>/XI16/Xs0c<5>/MM0 N_XI20<8>/XI16/XS0C<5>/BITN_XI20<8>/XI16/Xs0c<5>/MM0_d
+ N_XI20<8>/XI16/XS0C<5>/BIT_XI20<8>/XI16/Xs0c<5>/MM0_g VDD! VDD! PMOS_SRAM
+ L=2e-08 W=2.7e-08 NFIN=1 $X=11.403 $Y=2.5415
mXI20<8>/XI16/Xs0c<4>/MM12
+ N_XI20<8>/XI16/XS0C<4>/BITN_XI20<8>/XI16/Xs0c<4>/MM12_d
+ N_WWL<4>_XI20<8>/XI16/Xs0c<4>/MM12_g
+ N_XI20<8>/NET10_XI20<8>/XI16/Xs0c<4>/MM12_s VSS! NMOS_SRAM L=2e-08 W=5.4e-08
+ NFIN=2 $X=11.531 $Y=2.4605
mXI20<8>/XI16/Xs0c<4>/MM10
+ N_XI20<8>/XI16/XS0C<4>/BIT_XI20<8>/XI16/Xs0c<4>/MM10_d
+ N_XI20<8>/XI16/XS0C<4>/BITN_XI20<8>/XI16/Xs0c<4>/MM10_g VSS! VSS! NMOS_SRAM
+ L=2e-08 W=5.4e-08 NFIN=2 $X=11.531 $Y=2.6495
mXI20<8>/XI16/Xs0c<4>/MM7
+ N_XI20<8>/XI16/XS0C<4>/NET38_XI20<8>/XI16/Xs0c<4>/MM7_d
+ N_XI20<8>/XI16/XS0C<4>/BITN_XI20<8>/XI16/Xs0c<4>/MM7_g VSS! VSS! NMOS_SRAM
+ L=2e-08 W=5.4e-08 NFIN=2 $X=11.531 $Y=2.7575
mXI20<8>/XI16/Xs0c<4>/MM9 N_XI20<8>/XI16/XS0C<4>/BITN_XI20<8>/XI16/Xs0c<4>/MM9_d
+ N_XI20<8>/XI16/XS0C<4>/BIT_XI20<8>/XI16/Xs0c<4>/MM9_g VSS! VSS! NMOS_SRAM
+ L=2e-08 W=5.4e-08 NFIN=2 $X=11.477 $Y=2.4605
mXI20<8>/XI16/Xs0c<4>/MM11 N_XI20<8>/NET9_XI20<8>/XI16/Xs0c<4>/MM11_d
+ N_WWL<4>_XI20<8>/XI16/Xs0c<4>/MM11_g
+ N_XI20<8>/XI16/XS0C<4>/BIT_XI20<8>/XI16/Xs0c<4>/MM11_s VSS! NMOS_SRAM L=2e-08
+ W=5.4e-08 NFIN=2 $X=11.477 $Y=2.6495
mXI20<8>/XI16/Xs0c<4>/MM8 N_XI20<8>/NET8_XI20<8>/XI16/Xs0c<4>/MM8_d
+ N_RWL<4>_XI20<8>/XI16/Xs0c<4>/MM8_g
+ N_XI20<8>/XI16/XS0C<4>/NET38_XI20<8>/XI16/Xs0c<4>/MM8_s VSS! NMOS_SRAM L=2e-08
+ W=5.4e-08 NFIN=2 $X=11.477 $Y=2.7575
mXI20<8>/XI16/Xs0c<4>/MM1 N_XI20<8>/XI16/XS0C<4>/BIT_XI20<8>/XI16/Xs0c<4>/MM1_d
+ N_XI20<8>/XI16/XS0C<4>/BITN_XI20<8>/XI16/Xs0c<4>/MM1_g VDD! VDD! PMOS_SRAM
+ L=2e-08 W=2.7e-08 NFIN=1 $X=11.531 $Y=2.5955
mXI20<8>/XI16/Xs0c<4>/MM0 N_XI20<8>/XI16/XS0C<4>/BITN_XI20<8>/XI16/Xs0c<4>/MM0_d
+ N_XI20<8>/XI16/XS0C<4>/BIT_XI20<8>/XI16/Xs0c<4>/MM0_g VDD! VDD! PMOS_SRAM
+ L=2e-08 W=2.7e-08 NFIN=1 $X=11.477 $Y=2.5415
mXI20<8>/XI16/Xs0c<3>/MM12
+ N_XI20<8>/XI16/XS0C<3>/BITN_XI20<8>/XI16/Xs0c<3>/MM12_d
+ N_WWL<3>_XI20<8>/XI16/Xs0c<3>/MM12_g
+ N_XI20<8>/NET10_XI20<8>/XI16/Xs0c<3>/MM12_s VSS! NMOS_SRAM L=2e-08 W=5.4e-08
+ NFIN=2 $X=11.565 $Y=2.4605
mXI20<8>/XI16/Xs0c<3>/MM10
+ N_XI20<8>/XI16/XS0C<3>/BIT_XI20<8>/XI16/Xs0c<3>/MM10_d
+ N_XI20<8>/XI16/XS0C<3>/BITN_XI20<8>/XI16/Xs0c<3>/MM10_g VSS! VSS! NMOS_SRAM
+ L=2e-08 W=5.4e-08 NFIN=2 $X=11.565 $Y=2.6495
mXI20<8>/XI16/Xs0c<3>/MM7
+ N_XI20<8>/XI16/XS0C<3>/NET38_XI20<8>/XI16/Xs0c<3>/MM7_d
+ N_XI20<8>/XI16/XS0C<3>/BITN_XI20<8>/XI16/Xs0c<3>/MM7_g VSS! VSS! NMOS_SRAM
+ L=2e-08 W=5.4e-08 NFIN=2 $X=11.565 $Y=2.7575
mXI20<8>/XI16/Xs0c<3>/MM9 N_XI20<8>/XI16/XS0C<3>/BITN_XI20<8>/XI16/Xs0c<3>/MM9_d
+ N_XI20<8>/XI16/XS0C<3>/BIT_XI20<8>/XI16/Xs0c<3>/MM9_g VSS! VSS! NMOS_SRAM
+ L=2e-08 W=5.4e-08 NFIN=2 $X=11.619 $Y=2.4605
mXI20<8>/XI16/Xs0c<3>/MM11 N_XI20<8>/NET9_XI20<8>/XI16/Xs0c<3>/MM11_d
+ N_WWL<3>_XI20<8>/XI16/Xs0c<3>/MM11_g
+ N_XI20<8>/XI16/XS0C<3>/BIT_XI20<8>/XI16/Xs0c<3>/MM11_s VSS! NMOS_SRAM L=2e-08
+ W=5.4e-08 NFIN=2 $X=11.619 $Y=2.6495
mXI20<8>/XI16/Xs0c<3>/MM8 N_XI20<8>/NET8_XI20<8>/XI16/Xs0c<3>/MM8_d
+ N_RWL<3>_XI20<8>/XI16/Xs0c<3>/MM8_g
+ N_XI20<8>/XI16/XS0C<3>/NET38_XI20<8>/XI16/Xs0c<3>/MM8_s VSS! NMOS_SRAM L=2e-08
+ W=5.4e-08 NFIN=2 $X=11.619 $Y=2.7575
mXI20<8>/XI16/Xs0c<3>/MM1 N_XI20<8>/XI16/XS0C<3>/BIT_XI20<8>/XI16/Xs0c<3>/MM1_d
+ N_XI20<8>/XI16/XS0C<3>/BITN_XI20<8>/XI16/Xs0c<3>/MM1_g VDD! VDD! PMOS_SRAM
+ L=2e-08 W=2.7e-08 NFIN=1 $X=11.565 $Y=2.5955
mXI20<8>/XI16/Xs0c<3>/MM0 N_XI20<8>/XI16/XS0C<3>/BITN_XI20<8>/XI16/Xs0c<3>/MM0_d
+ N_XI20<8>/XI16/XS0C<3>/BIT_XI20<8>/XI16/Xs0c<3>/MM0_g VDD! VDD! PMOS_SRAM
+ L=2e-08 W=2.7e-08 NFIN=1 $X=11.619 $Y=2.5415
mXI20<8>/XI16/Xs0c<2>/MM12
+ N_XI20<8>/XI16/XS0C<2>/BITN_XI20<8>/XI16/Xs0c<2>/MM12_d
+ N_WWL<2>_XI20<8>/XI16/Xs0c<2>/MM12_g
+ N_XI20<8>/NET10_XI20<8>/XI16/Xs0c<2>/MM12_s VSS! NMOS_SRAM L=2e-08 W=5.4e-08
+ NFIN=2 $X=11.747 $Y=2.4605
mXI20<8>/XI16/Xs0c<2>/MM10
+ N_XI20<8>/XI16/XS0C<2>/BIT_XI20<8>/XI16/Xs0c<2>/MM10_d
+ N_XI20<8>/XI16/XS0C<2>/BITN_XI20<8>/XI16/Xs0c<2>/MM10_g VSS! VSS! NMOS_SRAM
+ L=2e-08 W=5.4e-08 NFIN=2 $X=11.747 $Y=2.6495
mXI20<8>/XI16/Xs0c<2>/MM7
+ N_XI20<8>/XI16/XS0C<2>/NET38_XI20<8>/XI16/Xs0c<2>/MM7_d
+ N_XI20<8>/XI16/XS0C<2>/BITN_XI20<8>/XI16/Xs0c<2>/MM7_g VSS! VSS! NMOS_SRAM
+ L=2e-08 W=5.4e-08 NFIN=2 $X=11.747 $Y=2.7575
mXI20<8>/XI16/Xs0c<2>/MM9 N_XI20<8>/XI16/XS0C<2>/BITN_XI20<8>/XI16/Xs0c<2>/MM9_d
+ N_XI20<8>/XI16/XS0C<2>/BIT_XI20<8>/XI16/Xs0c<2>/MM9_g VSS! VSS! NMOS_SRAM
+ L=2e-08 W=5.4e-08 NFIN=2 $X=11.693 $Y=2.4605
mXI20<8>/XI16/Xs0c<2>/MM11 N_XI20<8>/NET9_XI20<8>/XI16/Xs0c<2>/MM11_d
+ N_WWL<2>_XI20<8>/XI16/Xs0c<2>/MM11_g
+ N_XI20<8>/XI16/XS0C<2>/BIT_XI20<8>/XI16/Xs0c<2>/MM11_s VSS! NMOS_SRAM L=2e-08
+ W=5.4e-08 NFIN=2 $X=11.693 $Y=2.6495
mXI20<8>/XI16/Xs0c<2>/MM8 N_XI20<8>/NET8_XI20<8>/XI16/Xs0c<2>/MM8_d
+ N_RWL<2>_XI20<8>/XI16/Xs0c<2>/MM8_g
+ N_XI20<8>/XI16/XS0C<2>/NET38_XI20<8>/XI16/Xs0c<2>/MM8_s VSS! NMOS_SRAM L=2e-08
+ W=5.4e-08 NFIN=2 $X=11.693 $Y=2.7575
mXI20<8>/XI16/Xs0c<2>/MM1 N_XI20<8>/XI16/XS0C<2>/BIT_XI20<8>/XI16/Xs0c<2>/MM1_d
+ N_XI20<8>/XI16/XS0C<2>/BITN_XI20<8>/XI16/Xs0c<2>/MM1_g VDD! VDD! PMOS_SRAM
+ L=2e-08 W=2.7e-08 NFIN=1 $X=11.747 $Y=2.5955
mXI20<8>/XI16/Xs0c<2>/MM0 N_XI20<8>/XI16/XS0C<2>/BITN_XI20<8>/XI16/Xs0c<2>/MM0_d
+ N_XI20<8>/XI16/XS0C<2>/BIT_XI20<8>/XI16/Xs0c<2>/MM0_g VDD! VDD! PMOS_SRAM
+ L=2e-08 W=2.7e-08 NFIN=1 $X=11.693 $Y=2.5415
mXI20<8>/XI16/Xs0c<1>/MM12
+ N_XI20<8>/XI16/XS0C<1>/BITN_XI20<8>/XI16/Xs0c<1>/MM12_d
+ N_WWL<1>_XI20<8>/XI16/Xs0c<1>/MM12_g
+ N_XI20<8>/NET10_XI20<8>/XI16/Xs0c<1>/MM12_s VSS! NMOS_SRAM L=2e-08 W=5.4e-08
+ NFIN=2 $X=11.781 $Y=2.4605
mXI20<8>/XI16/Xs0c<1>/MM10
+ N_XI20<8>/XI16/XS0C<1>/BIT_XI20<8>/XI16/Xs0c<1>/MM10_d
+ N_XI20<8>/XI16/XS0C<1>/BITN_XI20<8>/XI16/Xs0c<1>/MM10_g VSS! VSS! NMOS_SRAM
+ L=2e-08 W=5.4e-08 NFIN=2 $X=11.781 $Y=2.6495
mXI20<8>/XI16/Xs0c<1>/MM7
+ N_XI20<8>/XI16/XS0C<1>/NET38_XI20<8>/XI16/Xs0c<1>/MM7_d
+ N_XI20<8>/XI16/XS0C<1>/BITN_XI20<8>/XI16/Xs0c<1>/MM7_g VSS! VSS! NMOS_SRAM
+ L=2e-08 W=5.4e-08 NFIN=2 $X=11.781 $Y=2.7575
mXI20<8>/XI16/Xs0c<1>/MM9 N_XI20<8>/XI16/XS0C<1>/BITN_XI20<8>/XI16/Xs0c<1>/MM9_d
+ N_XI20<8>/XI16/XS0C<1>/BIT_XI20<8>/XI16/Xs0c<1>/MM9_g VSS! VSS! NMOS_SRAM
+ L=2e-08 W=5.4e-08 NFIN=2 $X=11.835 $Y=2.4605
mXI20<8>/XI16/Xs0c<1>/MM11 N_XI20<8>/NET9_XI20<8>/XI16/Xs0c<1>/MM11_d
+ N_WWL<1>_XI20<8>/XI16/Xs0c<1>/MM11_g
+ N_XI20<8>/XI16/XS0C<1>/BIT_XI20<8>/XI16/Xs0c<1>/MM11_s VSS! NMOS_SRAM L=2e-08
+ W=5.4e-08 NFIN=2 $X=11.835 $Y=2.6495
mXI20<8>/XI16/Xs0c<1>/MM8 N_XI20<8>/NET8_XI20<8>/XI16/Xs0c<1>/MM8_d
+ N_RWL<1>_XI20<8>/XI16/Xs0c<1>/MM8_g
+ N_XI20<8>/XI16/XS0C<1>/NET38_XI20<8>/XI16/Xs0c<1>/MM8_s VSS! NMOS_SRAM L=2e-08
+ W=5.4e-08 NFIN=2 $X=11.835 $Y=2.7575
mXI20<8>/XI16/Xs0c<1>/MM1 N_XI20<8>/XI16/XS0C<1>/BIT_XI20<8>/XI16/Xs0c<1>/MM1_d
+ N_XI20<8>/XI16/XS0C<1>/BITN_XI20<8>/XI16/Xs0c<1>/MM1_g VDD! VDD! PMOS_SRAM
+ L=2e-08 W=2.7e-08 NFIN=1 $X=11.781 $Y=2.5955
mXI20<8>/XI16/Xs0c<1>/MM0 N_XI20<8>/XI16/XS0C<1>/BITN_XI20<8>/XI16/Xs0c<1>/MM0_d
+ N_XI20<8>/XI16/XS0C<1>/BIT_XI20<8>/XI16/Xs0c<1>/MM0_g VDD! VDD! PMOS_SRAM
+ L=2e-08 W=2.7e-08 NFIN=1 $X=11.835 $Y=2.5415
mXI20<8>/XI16/Xs0c<0>/MM12
+ N_XI20<8>/XI16/XS0C<0>/BITN_XI20<8>/XI16/Xs0c<0>/MM12_d
+ N_WWL<0>_XI20<8>/XI16/Xs0c<0>/MM12_g
+ N_XI20<8>/NET10_XI20<8>/XI16/Xs0c<0>/MM12_s VSS! NMOS_SRAM L=2e-08 W=5.4e-08
+ NFIN=2 $X=11.963 $Y=2.4605
mXI20<8>/XI16/Xs0c<0>/MM10
+ N_XI20<8>/XI16/XS0C<0>/BIT_XI20<8>/XI16/Xs0c<0>/MM10_d
+ N_XI20<8>/XI16/XS0C<0>/BITN_XI20<8>/XI16/Xs0c<0>/MM10_g VSS! VSS! NMOS_SRAM
+ L=2e-08 W=5.4e-08 NFIN=2 $X=11.963 $Y=2.6495
mXI20<8>/XI16/Xs0c<0>/MM7
+ N_XI20<8>/XI16/XS0C<0>/NET38_XI20<8>/XI16/Xs0c<0>/MM7_d
+ N_XI20<8>/XI16/XS0C<0>/BITN_XI20<8>/XI16/Xs0c<0>/MM7_g VSS! VSS! NMOS_SRAM
+ L=2e-08 W=5.4e-08 NFIN=2 $X=11.963 $Y=2.7575
mXI20<8>/XI16/Xs0c<0>/MM9 N_XI20<8>/XI16/XS0C<0>/BITN_XI20<8>/XI16/Xs0c<0>/MM9_d
+ N_XI20<8>/XI16/XS0C<0>/BIT_XI20<8>/XI16/Xs0c<0>/MM9_g VSS! VSS! NMOS_SRAM
+ L=2e-08 W=5.4e-08 NFIN=2 $X=11.909 $Y=2.4605
mXI20<8>/XI16/Xs0c<0>/MM11 N_XI20<8>/NET9_XI20<8>/XI16/Xs0c<0>/MM11_d
+ N_WWL<0>_XI20<8>/XI16/Xs0c<0>/MM11_g
+ N_XI20<8>/XI16/XS0C<0>/BIT_XI20<8>/XI16/Xs0c<0>/MM11_s VSS! NMOS_SRAM L=2e-08
+ W=5.4e-08 NFIN=2 $X=11.909 $Y=2.6495
mXI20<8>/XI16/Xs0c<0>/MM8 N_XI20<8>/NET8_XI20<8>/XI16/Xs0c<0>/MM8_d
+ N_RWL<0>_XI20<8>/XI16/Xs0c<0>/MM8_g
+ N_XI20<8>/XI16/XS0C<0>/NET38_XI20<8>/XI16/Xs0c<0>/MM8_s VSS! NMOS_SRAM L=2e-08
+ W=5.4e-08 NFIN=2 $X=11.909 $Y=2.7575
mXI20<8>/XI16/Xs0c<0>/MM1 N_XI20<8>/XI16/XS0C<0>/BIT_XI20<8>/XI16/Xs0c<0>/MM1_d
+ N_XI20<8>/XI16/XS0C<0>/BITN_XI20<8>/XI16/Xs0c<0>/MM1_g VDD! VDD! PMOS_SRAM
+ L=2e-08 W=2.7e-08 NFIN=1 $X=11.963 $Y=2.5955
mXI20<8>/XI16/Xs0c<0>/MM0 N_XI20<8>/XI16/XS0C<0>/BITN_XI20<8>/XI16/Xs0c<0>/MM0_d
+ N_XI20<8>/XI16/XS0C<0>/BIT_XI20<8>/XI16/Xs0c<0>/MM0_g VDD! VDD! PMOS_SRAM
+ L=2e-08 W=2.7e-08 NFIN=1 $X=11.909 $Y=2.5415
mXI20<8>/XI15/Xd<1>/MM1 VSS! VSS! N_XI20<8>/NET20_XI20<8>/XI15/Xd<1>/MM1_s VSS!
+ NMOS_SRAM L=2e-08 W=5.4e-08 NFIN=2 $X=16.101 $Y=2.4605
mXI20<15>/XI16/Xd<1>/MM9 VSS! VSS! VSS! VSS! NMOS_SRAM L=2e-08 W=5.4e-08 NFIN=2
+ $X=16.101 $Y=2.6495
mXI20<15>/XI16/Xd<1>/MM0 VSS! VSS! VDD! VDD! PMOS_SRAM L=2e-08 W=2.7e-08 NFIN=1
+ $X=16.101 $Y=2.5955
mXI20<8>/XI15/Xd<0>/MM1 VSS! VSS! N_XI20<8>/NET20_XI20<8>/XI15/Xd<0>/MM1_s VSS!
+ NMOS_SRAM L=2e-08 W=5.4e-08 NFIN=2 $X=15.203 $Y=2.4605
mXI20<15>/XI16/Xd<0>/MM9 VSS! VSS! VSS! VSS! NMOS_SRAM L=2e-08 W=5.4e-08 NFIN=2
+ $X=15.203 $Y=2.6495
mXI20<15>/XI16/Xd<0>/MM0 VSS! VSS! VDD! VDD! PMOS_SRAM L=2e-08 W=2.7e-08 NFIN=1
+ $X=15.203 $Y=2.5955
mXI20<8>/XI15/Xs0c<7>/MM12
+ N_XI20<8>/XI15/XS0C<7>/BITN_XI20<8>/XI15/Xs0c<7>/MM12_d
+ N_WWL<15>_XI20<8>/XI15/Xs0c<7>/MM12_g
+ N_XI20<8>/NET20_XI20<8>/XI15/Xs0c<7>/MM12_s VSS! NMOS_SRAM L=2e-08 W=5.4e-08
+ NFIN=2 $X=16.067 $Y=2.4605
mXI20<8>/XI15/Xs0c<7>/MM10
+ N_XI20<8>/XI15/XS0C<7>/BIT_XI20<8>/XI15/Xs0c<7>/MM10_d
+ N_XI20<8>/XI15/XS0C<7>/BITN_XI20<8>/XI15/Xs0c<7>/MM10_g VSS! VSS! NMOS_SRAM
+ L=2e-08 W=5.4e-08 NFIN=2 $X=16.067 $Y=2.6495
mXI20<8>/XI15/Xs0c<7>/MM7
+ N_XI20<8>/XI15/XS0C<7>/NET38_XI20<8>/XI15/Xs0c<7>/MM7_d
+ N_XI20<8>/XI15/XS0C<7>/BITN_XI20<8>/XI15/Xs0c<7>/MM7_g VSS! VSS! NMOS_SRAM
+ L=2e-08 W=5.4e-08 NFIN=2 $X=16.067 $Y=2.7575
mXI20<8>/XI15/Xs0c<7>/MM9 N_XI20<8>/XI15/XS0C<7>/BITN_XI20<8>/XI15/Xs0c<7>/MM9_d
+ N_XI20<8>/XI15/XS0C<7>/BIT_XI20<8>/XI15/Xs0c<7>/MM9_g VSS! VSS! NMOS_SRAM
+ L=2e-08 W=5.4e-08 NFIN=2 $X=16.013 $Y=2.4605
mXI20<8>/XI15/Xs0c<7>/MM11 N_XI20<8>/NET12_XI20<8>/XI15/Xs0c<7>/MM11_d
+ N_WWL<15>_XI20<8>/XI15/Xs0c<7>/MM11_g
+ N_XI20<8>/XI15/XS0C<7>/BIT_XI20<8>/XI15/Xs0c<7>/MM11_s VSS! NMOS_SRAM L=2e-08
+ W=5.4e-08 NFIN=2 $X=16.013 $Y=2.6495
mXI20<8>/XI15/Xs0c<7>/MM8 N_XI20<8>/NET11_XI20<8>/XI15/Xs0c<7>/MM8_d
+ N_RWL<15>_XI20<8>/XI15/Xs0c<7>/MM8_g
+ N_XI20<8>/XI15/XS0C<7>/NET38_XI20<8>/XI15/Xs0c<7>/MM8_s VSS! NMOS_SRAM L=2e-08
+ W=5.4e-08 NFIN=2 $X=16.013 $Y=2.7575
mXI20<8>/XI15/Xs0c<7>/MM1 N_XI20<8>/XI15/XS0C<7>/BIT_XI20<8>/XI15/Xs0c<7>/MM1_d
+ N_XI20<8>/XI15/XS0C<7>/BITN_XI20<8>/XI15/Xs0c<7>/MM1_g VDD! VDD! PMOS_SRAM
+ L=2e-08 W=2.7e-08 NFIN=1 $X=16.067 $Y=2.5955
mXI20<8>/XI15/Xs0c<7>/MM0 N_XI20<8>/XI15/XS0C<7>/BITN_XI20<8>/XI15/Xs0c<7>/MM0_d
+ N_XI20<8>/XI15/XS0C<7>/BIT_XI20<8>/XI15/Xs0c<7>/MM0_g VDD! VDD! PMOS_SRAM
+ L=2e-08 W=2.7e-08 NFIN=1 $X=16.013 $Y=2.5415
mXI20<8>/XI15/Xs0c<6>/MM12
+ N_XI20<8>/XI15/XS0C<6>/BITN_XI20<8>/XI15/Xs0c<6>/MM12_d
+ N_WWL<14>_XI20<8>/XI15/Xs0c<6>/MM12_g
+ N_XI20<8>/NET20_XI20<8>/XI15/Xs0c<6>/MM12_s VSS! NMOS_SRAM L=2e-08 W=5.4e-08
+ NFIN=2 $X=15.885 $Y=2.4605
mXI20<8>/XI15/Xs0c<6>/MM10
+ N_XI20<8>/XI15/XS0C<6>/BIT_XI20<8>/XI15/Xs0c<6>/MM10_d
+ N_XI20<8>/XI15/XS0C<6>/BITN_XI20<8>/XI15/Xs0c<6>/MM10_g VSS! VSS! NMOS_SRAM
+ L=2e-08 W=5.4e-08 NFIN=2 $X=15.885 $Y=2.6495
mXI20<8>/XI15/Xs0c<6>/MM7
+ N_XI20<8>/XI15/XS0C<6>/NET38_XI20<8>/XI15/Xs0c<6>/MM7_d
+ N_XI20<8>/XI15/XS0C<6>/BITN_XI20<8>/XI15/Xs0c<6>/MM7_g VSS! VSS! NMOS_SRAM
+ L=2e-08 W=5.4e-08 NFIN=2 $X=15.885 $Y=2.7575
mXI20<8>/XI15/Xs0c<6>/MM9 N_XI20<8>/XI15/XS0C<6>/BITN_XI20<8>/XI15/Xs0c<6>/MM9_d
+ N_XI20<8>/XI15/XS0C<6>/BIT_XI20<8>/XI15/Xs0c<6>/MM9_g VSS! VSS! NMOS_SRAM
+ L=2e-08 W=5.4e-08 NFIN=2 $X=15.939 $Y=2.4605
mXI20<8>/XI15/Xs0c<6>/MM11 N_XI20<8>/NET12_XI20<8>/XI15/Xs0c<6>/MM11_d
+ N_WWL<14>_XI20<8>/XI15/Xs0c<6>/MM11_g
+ N_XI20<8>/XI15/XS0C<6>/BIT_XI20<8>/XI15/Xs0c<6>/MM11_s VSS! NMOS_SRAM L=2e-08
+ W=5.4e-08 NFIN=2 $X=15.939 $Y=2.6495
mXI20<8>/XI15/Xs0c<6>/MM8 N_XI20<8>/NET11_XI20<8>/XI15/Xs0c<6>/MM8_d
+ N_RWL<14>_XI20<8>/XI15/Xs0c<6>/MM8_g
+ N_XI20<8>/XI15/XS0C<6>/NET38_XI20<8>/XI15/Xs0c<6>/MM8_s VSS! NMOS_SRAM L=2e-08
+ W=5.4e-08 NFIN=2 $X=15.939 $Y=2.7575
mXI20<8>/XI15/Xs0c<6>/MM1 N_XI20<8>/XI15/XS0C<6>/BIT_XI20<8>/XI15/Xs0c<6>/MM1_d
+ N_XI20<8>/XI15/XS0C<6>/BITN_XI20<8>/XI15/Xs0c<6>/MM1_g VDD! VDD! PMOS_SRAM
+ L=2e-08 W=2.7e-08 NFIN=1 $X=15.885 $Y=2.5955
mXI20<8>/XI15/Xs0c<6>/MM0 N_XI20<8>/XI15/XS0C<6>/BITN_XI20<8>/XI15/Xs0c<6>/MM0_d
+ N_XI20<8>/XI15/XS0C<6>/BIT_XI20<8>/XI15/Xs0c<6>/MM0_g VDD! VDD! PMOS_SRAM
+ L=2e-08 W=2.7e-08 NFIN=1 $X=15.939 $Y=2.5415
mXI20<8>/XI15/Xs0c<5>/MM12
+ N_XI20<8>/XI15/XS0C<5>/BITN_XI20<8>/XI15/Xs0c<5>/MM12_d
+ N_WWL<13>_XI20<8>/XI15/Xs0c<5>/MM12_g
+ N_XI20<8>/NET20_XI20<8>/XI15/Xs0c<5>/MM12_s VSS! NMOS_SRAM L=2e-08 W=5.4e-08
+ NFIN=2 $X=15.851 $Y=2.4605
mXI20<8>/XI15/Xs0c<5>/MM10
+ N_XI20<8>/XI15/XS0C<5>/BIT_XI20<8>/XI15/Xs0c<5>/MM10_d
+ N_XI20<8>/XI15/XS0C<5>/BITN_XI20<8>/XI15/Xs0c<5>/MM10_g VSS! VSS! NMOS_SRAM
+ L=2e-08 W=5.4e-08 NFIN=2 $X=15.851 $Y=2.6495
mXI20<8>/XI15/Xs0c<5>/MM7
+ N_XI20<8>/XI15/XS0C<5>/NET38_XI20<8>/XI15/Xs0c<5>/MM7_d
+ N_XI20<8>/XI15/XS0C<5>/BITN_XI20<8>/XI15/Xs0c<5>/MM7_g VSS! VSS! NMOS_SRAM
+ L=2e-08 W=5.4e-08 NFIN=2 $X=15.851 $Y=2.7575
mXI20<8>/XI15/Xs0c<5>/MM9 N_XI20<8>/XI15/XS0C<5>/BITN_XI20<8>/XI15/Xs0c<5>/MM9_d
+ N_XI20<8>/XI15/XS0C<5>/BIT_XI20<8>/XI15/Xs0c<5>/MM9_g VSS! VSS! NMOS_SRAM
+ L=2e-08 W=5.4e-08 NFIN=2 $X=15.797 $Y=2.4605
mXI20<8>/XI15/Xs0c<5>/MM11 N_XI20<8>/NET12_XI20<8>/XI15/Xs0c<5>/MM11_d
+ N_WWL<13>_XI20<8>/XI15/Xs0c<5>/MM11_g
+ N_XI20<8>/XI15/XS0C<5>/BIT_XI20<8>/XI15/Xs0c<5>/MM11_s VSS! NMOS_SRAM L=2e-08
+ W=5.4e-08 NFIN=2 $X=15.797 $Y=2.6495
mXI20<8>/XI15/Xs0c<5>/MM8 N_XI20<8>/NET11_XI20<8>/XI15/Xs0c<5>/MM8_d
+ N_RWL<13>_XI20<8>/XI15/Xs0c<5>/MM8_g
+ N_XI20<8>/XI15/XS0C<5>/NET38_XI20<8>/XI15/Xs0c<5>/MM8_s VSS! NMOS_SRAM L=2e-08
+ W=5.4e-08 NFIN=2 $X=15.797 $Y=2.7575
mXI20<8>/XI15/Xs0c<5>/MM1 N_XI20<8>/XI15/XS0C<5>/BIT_XI20<8>/XI15/Xs0c<5>/MM1_d
+ N_XI20<8>/XI15/XS0C<5>/BITN_XI20<8>/XI15/Xs0c<5>/MM1_g VDD! VDD! PMOS_SRAM
+ L=2e-08 W=2.7e-08 NFIN=1 $X=15.851 $Y=2.5955
mXI20<8>/XI15/Xs0c<5>/MM0 N_XI20<8>/XI15/XS0C<5>/BITN_XI20<8>/XI15/Xs0c<5>/MM0_d
+ N_XI20<8>/XI15/XS0C<5>/BIT_XI20<8>/XI15/Xs0c<5>/MM0_g VDD! VDD! PMOS_SRAM
+ L=2e-08 W=2.7e-08 NFIN=1 $X=15.797 $Y=2.5415
mXI20<8>/XI15/Xs0c<4>/MM12