* File: Register_File_new.pex.netlist.pex
* Created: Sun Oct 30 13:33:16 2016
* Program "Calibre xRC"
* Version "v2015.2_36.27"
* Nominal Temperature: 25C
* Circuit Temperature: 27C
* 
.subckt PM_REGISTER_FILE_NEW%XI20<8>/XI16/XS0C<7>/BIT 2 5 14 15 19 vss!
c0 10 vss! 0.030215f
r1 15 18 12.5926
r2 14 18 12.5926
r3 10 19 22.2222
r4 10 18 52.433
r5 5 10 251.183
r6 2 5 250.958
.ends

.subckt PM_REGISTER_FILE_NEW%XI20<8>/XI16/XS0C<7>/NET38 1 2 vss!
r4 1 2 25.1852
.ends

.subckt PM_REGISTER_FILE_NEW%XI20<8>/XI16/XS0C<6>/BIT 2 5 14 15 19 vss!
c0 10 vss! 0.029898f
r1 15 18 12.5926
r2 14 18 12.5926
r3 10 19 22.2222
r4 10 18 52.433
r5 5 10 251.183
r6 2 5 250.958
.ends

.subckt PM_REGISTER_FILE_NEW%XI20<8>/XI16/XS0C<6>/NET38 1 2 vss!
r4 1 2 25.1852
.ends

.subckt PM_REGISTER_FILE_NEW%XI20<8>/XI16/XS0C<5>/BIT 2 5 14 15 19 vss!
c0 10 vss! 0.0296791f
r1 15 18 12.5926
r2 14 18 12.5926
r3 10 19 22.2222
r4 10 18 52.433
r5 5 10 251.183
r6 2 5 250.958
.ends

.subckt PM_REGISTER_FILE_NEW%XI20<8>/XI16/XS0C<5>/NET38 1 2 vss!
r4 1 2 25.1852
.ends

.subckt PM_REGISTER_FILE_NEW%XI20<8>/XI16/XS0C<4>/BIT 2 5 14 15 19 vss!
c0 10 vss! 0.0299452f
r1 15 18 12.5926
r2 14 18 12.5926
r3 10 19 22.2222
r4 10 18 52.433
r5 5 10 251.183
r6 2 5 250.958
.ends

.subckt PM_REGISTER_FILE_NEW%XI20<8>/XI16/XS0C<4>/NET38 1 2 vss!
r4 1 2 25.1852
.ends

.subckt PM_REGISTER_FILE_NEW%XI20<8>/XI16/XS0C<3>/BIT 2 5 14 15 19 vss!
c0 10 vss! 0.0299452f
r1 15 18 12.5926
r2 14 18 12.5926
r3 10 19 22.2222
r4 10 18 52.433
r5 5 10 251.183
r6 2 5 250.958
.ends

.subckt PM_REGISTER_FILE_NEW%XI20<8>/XI16/XS0C<3>/NET38 1 2 vss!
r4 1 2 25.1852
.ends

.subckt PM_REGISTER_FILE_NEW%XI20<8>/XI16/XS0C<2>/BIT 2 5 14 15 19 vss!
c0 10 vss! 0.0299452f
r1 15 18 12.5926
r2 14 18 12.5926
r3 10 19 22.2222
r4 10 18 52.433
r5 5 10 251.183
r6 2 5 250.958
.ends

.subckt PM_REGISTER_FILE_NEW%XI20<8>/XI16/XS0C<2>/NET38 1 2 vss!
r4 1 2 25.1852
.ends

.subckt PM_REGISTER_FILE_NEW%XI20<8>/XI16/XS0C<1>/BIT 2 5 14 15 19 vss!
c0 10 vss! 0.0299452f
r1 15 18 12.5926
r2 14 18 12.5926
r3 10 19 22.2222
r4 10 18 52.433
r5 5 10 251.183
r6 2 5 250.958
.ends

.subckt PM_REGISTER_FILE_NEW%XI20<8>/XI16/XS0C<1>/NET38 1 2 vss!
r4 1 2 25.1852
.ends

.subckt PM_REGISTER_FILE_NEW%XI20<8>/XI16/XS0C<0>/BIT 2 5 14 15 19 vss!
c0 10 vss! 0.0299489f
r1 15 18 12.5926
r2 14 18 12.5926
r3 10 19 22.2222
r4 10 18 52.433
r5 5 10 251.183
r6 2 5 250.958
.ends

.subckt PM_REGISTER_FILE_NEW%XI20<8>/XI16/XS0C<0>/NET38 1 2 vss!
r4 1 2 25.1852
.ends

.subckt PM_REGISTER_FILE_NEW%XI20<8>/XI15/XS0C<7>/BIT 2 5 14 15 19 vss!
c0 10 vss! 0.030215f
r1 15 18 12.5926
r2 14 18 12.5926
r3 10 19 22.2222
r4 10 18 52.433
r5 5 10 251.183
r6 2 5 250.958
.ends

.subckt PM_REGISTER_FILE_NEW%XI20<8>/XI15/XS0C<7>/NET38 1 2 vss!
r4 1 2 25.1852
.ends

.subckt PM_REGISTER_FILE_NEW%XI20<8>/XI15/XS0C<6>/BIT 2 5 14 15 19 vss!
c0 10 vss! 0.0299452f
r1 15 18 12.5926
r2 14 18 12.5926
r3 10 19 22.2222
r4 10 18 52.433
r5 5 10 251.183
r6 2 5 250.958
.ends

.subckt PM_REGISTER_FILE_NEW%XI20<8>/XI15/XS0C<6>/NET38 1 2 vss!
r4 1 2 25.1852
.ends

.subckt PM_REGISTER_FILE_NEW%XI20<8>/XI15/XS0C<5>/BIT 2 5 14 15 19 vss!
c0 10 vss! 0.0299452f
r1 15 18 12.5926
r2 14 18 12.5926
r3 10 19 22.2222
r4 10 18 52.433
r5 5 10 251.183
r6 2 5 250.958
.ends

.subckt PM_REGISTER_FILE_NEW%XI20<8>/XI15/XS0C<5>/NET38 1 2 vss!
r4 1 2 25.1852
.ends

.subckt PM_REGISTER_FILE_NEW%XI20<8>/XI15/XS0C<4>/BIT 2 5 14 15 19 vss!
c0 10 vss! 0.0296791f
r1 15 18 12.5926
r2 14 18 12.5926
r3 10 19 22.2222
r4 10 18 52.433
r5 5 10 251.183
r6 2 5 250.958
.ends

.subckt PM_REGISTER_FILE_NEW%XI20<8>/XI15/XS0C<4>/NET38 1 2 vss!
r4 1 2 25.1852
.ends

.subckt PM_REGISTER_FILE_NEW%XI20<8>/XI15/XS0C<3>/BIT 2 5 14 15 19 vss!
c0 10 vss! 0.029898f
r1 15 18 12.5926
r2 14 18 12.5926
r3 10 19 22.2222
r4 10 18 52.433
r5 5 10 251.183
r6 2 5 250.958
.ends

.subckt PM_REGISTER_FILE_NEW%XI20<8>/XI15/XS0C<3>/NET38 1 2 vss!
r4 1 2 25.1852
.ends

.subckt PM_REGISTER_FILE_NEW%XI20<8>/XI15/XS0C<2>/BIT 2 5 14 15 19 vss!
c0 10 vss! 0.0296319f
r1 15 18 12.5926
r2 14 18 12.5926
r3 10 19 22.2222
r4 10 18 52.433
r5 5 10 251.183
r6 2 5 250.958
.ends

.subckt PM_REGISTER_FILE_NEW%XI20<8>/XI15/XS0C<2>/NET38 1 2 vss!
r4 1 2 25.1852
.ends

.subckt PM_REGISTER_FILE_NEW%XI20<8>/XI15/XS0C<1>/BIT 2 5 14 15 19 vss!
c0 10 vss! 0.0296319f
r1 15 18 12.5926
r2 14 18 12.5926
r3 10 19 22.2222
r4 10 18 52.433
r5 5 10 251.183
r6 2 5 250.958
.ends

.subckt PM_REGISTER_FILE_NEW%XI20<8>/XI15/XS0C<1>/NET38 1 2 vss!
r4 1 2 25.1852
.ends

.subckt PM_REGISTER_FILE_NEW%XI20<8>/XI15/XS0C<0>/BIT 2 5 14 15 19 vss!
c0 10 vss! 0.0299489f
r1 15 18 12.5926
r2 14 18 12.5926
r3 10 19 22.2222
r4 10 18 52.433
r5 5 10 251.183
r6 2 5 250.958
.ends

.subckt PM_REGISTER_FILE_NEW%XI20<8>/XI15/XS0C<0>/NET38 1 2 vss!
r4 1 2 25.1852
.ends

.subckt PM_REGISTER_FILE_NEW%XI20<9>/XI16/XS0C<7>/BIT 2 5 14 15 19 vss!
c0 10 vss! 0.030215f
r1 15 18 12.5926
r2 14 18 12.5926
r3 10 19 22.2222
r4 10 18 52.433
r5 5 10 251.183
r6 2 5 250.958
.ends

.subckt PM_REGISTER_FILE_NEW%XI20<9>/XI16/XS0C<7>/NET38 1 2 vss!
r4 1 2 25.1852
.ends

.subckt PM_REGISTER_FILE_NEW%XI20<9>/XI16/XS0C<6>/BIT 2 5 14 15 19 vss!
c0 10 vss! 0.029898f
r1 15 18 12.5926
r2 14 18 12.5926
r3 10 19 22.2222
r4 10 18 52.433
r5 5 10 251.183
r6 2 5 250.958
.ends

.subckt PM_REGISTER_FILE_NEW%XI20<9>/XI16/XS0C<6>/NET38 1 2 vss!
r4 1 2 25.1852
.ends

.subckt PM_REGISTER_FILE_NEW%XI20<9>/XI16/XS0C<5>/BIT 2 5 14 15 19 vss!
c0 10 vss! 0.0296791f
r1 15 18 12.5926
r2 14 18 12.5926
r3 10 19 22.2222
r4 10 18 52.433
r5 5 10 251.183
r6 2 5 250.958
.ends

.subckt PM_REGISTER_FILE_NEW%XI20<9>/XI16/XS0C<5>/NET38 1 2 vss!
r4 1 2 25.1852
.ends

.subckt PM_REGISTER_FILE_NEW%XI20<9>/XI16/XS0C<4>/BIT 2 5 14 15 19 vss!
c0 10 vss! 0.0299452f
r1 15 18 12.5926
r2 14 18 12.5926
r3 10 19 22.2222
r4 10 18 52.433
r5 5 10 251.183
r6 2 5 250.958
.ends

.subckt PM_REGISTER_FILE_NEW%XI20<9>/XI16/XS0C<4>/NET38 1 2 vss!
r4 1 2 25.1852
.ends

.subckt PM_REGISTER_FILE_NEW%XI20<9>/XI16/XS0C<3>/BIT 2 5 14 15 19 vss!
c0 10 vss! 0.0299452f
r1 15 18 12.5926
r2 14 18 12.5926
r3 10 19 22.2222
r4 10 18 52.433
r5 5 10 251.183
r6 2 5 250.958
.ends

.subckt PM_REGISTER_FILE_NEW%XI20<9>/XI16/XS0C<3>/NET38 1 2 vss!
r4 1 2 25.1852
.ends

.subckt PM_REGISTER_FILE_NEW%XI20<9>/XI16/XS0C<2>/BIT 2 5 14 15 19 vss!
c0 10 vss! 0.0299452f
r1 15 18 12.5926
r2 14 18 12.5926
r3 10 19 22.2222
r4 10 18 52.433
r5 5 10 251.183
r6 2 5 250.958
.ends

.subckt PM_REGISTER_FILE_NEW%XI20<9>/XI16/XS0C<2>/NET38 1 2 vss!
r4 1 2 25.1852
.ends

.subckt PM_REGISTER_FILE_NEW%XI20<9>/XI16/XS0C<1>/BIT 2 5 14 15 19 vss!
c0 10 vss! 0.0299452f
r1 15 18 12.5926
r2 14 18 12.5926
r3 10 19 22.2222
r4 10 18 52.433
r5 5 10 251.183
r6 2 5 250.958
.ends

.subckt PM_REGISTER_FILE_NEW%XI20<9>/XI16/XS0C<1>/NET38 1 2 vss!
r4 1 2 25.1852
.ends

.subckt PM_REGISTER_FILE_NEW%XI20<9>/XI16/XS0C<0>/BIT 2 5 14 15 19 vss!
c0 10 vss! 0.0299489f
r1 15 18 12.5926
r2 14 18 12.5926
r3 10 19 22.2222
r4 10 18 52.433
r5 5 10 251.183
r6 2 5 250.958
.ends

.subckt PM_REGISTER_FILE_NEW%XI20<9>/XI16/XS0C<0>/NET38 1 2 vss!
r4 1 2 25.1852
.ends

.subckt PM_REGISTER_FILE_NEW%XI20<9>/XI15/XS0C<7>/BIT 2 5 14 15 19 vss!
c0 10 vss! 0.030215f
r1 15 18 12.5926
r2 14 18 12.5926
r3 10 19 22.2222
r4 10 18 52.433
r5 5 10 251.183
r6 2 5 250.958
.ends

.subckt PM_REGISTER_FILE_NEW%XI20<9>/XI15/XS0C<7>/NET38 1 2 vss!
r4 1 2 25.1852
.ends

.subckt PM_REGISTER_FILE_NEW%XI20<9>/XI15/XS0C<6>/BIT 2 5 14 15 19 vss!
c0 10 vss! 0.0299452f
r1 15 18 12.5926
r2 14 18 12.5926
r3 10 19 22.2222
r4 10 18 52.433
r5 5 10 251.183
r6 2 5 250.958
.ends

.subckt PM_REGISTER_FILE_NEW%XI20<9>/XI15/XS0C<6>/NET38 1 2 vss!
r4 1 2 25.1852
.ends

.subckt PM_REGISTER_FILE_NEW%XI20<9>/XI15/XS0C<5>/BIT 2 5 14 15 19 vss!
c0 10 vss! 0.0299452f
r1 15 18 12.5926
r2 14 18 12.5926
r3 10 19 22.2222
r4 10 18 52.433
r5 5 10 251.183
r6 2 5 250.958
.ends

.subckt PM_REGISTER_FILE_NEW%XI20<9>/XI15/XS0C<5>/NET38 1 2 vss!
r4 1 2 25.1852
.ends

.subckt PM_REGISTER_FILE_NEW%XI20<9>/XI15/XS0C<4>/BIT 2 5 14 15 19 vss!
c0 10 vss! 0.0296791f
r1 15 18 12.5926
r2 14 18 12.5926
r3 10 19 22.2222
r4 10 18 52.433
r5 5 10 251.183
r6 2 5 250.958
.ends

.subckt PM_REGISTER_FILE_NEW%XI20<9>/XI15/XS0C<4>/NET38 1 2 vss!
r4 1 2 25.1852
.ends

.subckt PM_REGISTER_FILE_NEW%XI20<9>/XI15/XS0C<3>/BIT 2 5 14 15 19 vss!
c0 10 vss! 0.029898f
r1 15 18 12.5926
r2 14 18 12.5926
r3 10 19 22.2222
r4 10 18 52.433
r5 5 10 251.183
r6 2 5 250.958
.ends

.subckt PM_REGISTER_FILE_NEW%XI20<9>/XI15/XS0C<3>/NET38 1 2 vss!
r4 1 2 25.1852
.ends

.subckt PM_REGISTER_FILE_NEW%XI20<9>/XI15/XS0C<2>/BIT 2 5 14 15 19 vss!
c0 10 vss! 0.0296319f
r1 15 18 12.5926
r2 14 18 12.5926
r3 10 19 22.2222
r4 10 18 52.433
r5 5 10 251.183
r6 2 5 250.958
.ends

.subckt PM_REGISTER_FILE_NEW%XI20<9>/XI15/XS0C<2>/NET38 1 2 vss!
r4 1 2 25.1852
.ends

.subckt PM_REGISTER_FILE_NEW%XI20<9>/XI15/XS0C<1>/BIT 2 5 14 15 19 vss!
c0 10 vss! 0.0296319f
r1 15 18 12.5926
r2 14 18 12.5926
r3 10 19 22.2222
r4 10 18 52.433
r5 5 10 251.183
r6 2 5 250.958
.ends

.subckt PM_REGISTER_FILE_NEW%XI20<9>/XI15/XS0C<1>/NET38 1 2 vss!
r4 1 2 25.1852
.ends

.subckt PM_REGISTER_FILE_NEW%XI20<9>/XI15/XS0C<0>/BIT 2 5 14 15 19 vss!
c0 10 vss! 0.0299489f
r1 15 18 12.5926
r2 14 18 12.5926
r3 10 19 22.2222
r4 10 18 52.433
r5 5 10 251.183
r6 2 5 250.958
.ends

.subckt PM_REGISTER_FILE_NEW%XI20<9>/XI15/XS0C<0>/NET38 1 2 vss!
r4 1 2 25.1852
.ends

.subckt PM_REGISTER_FILE_NEW%XI20<10>/XI16/XS0C<7>/BIT 2 5 14 15 19 vss!
c0 10 vss! 0.030215f
r1 15 18 12.5926
r2 14 18 12.5926
r3 10 19 22.2222
r4 10 18 52.433
r5 5 10 251.183
r6 2 5 250.958
.ends

.subckt PM_REGISTER_FILE_NEW%XI20<10>/XI16/XS0C<7>/NET38 1 2 vss!
r4 1 2 25.1852
.ends

.subckt PM_REGISTER_FILE_NEW%XI20<10>/XI16/XS0C<6>/BIT 2 5 14 15 19 vss!
c0 10 vss! 0.029898f
r1 15 18 12.5926
r2 14 18 12.5926
r3 10 19 22.2222
r4 10 18 52.433
r5 5 10 251.183
r6 2 5 250.958
.ends

.subckt PM_REGISTER_FILE_NEW%XI20<10>/XI16/XS0C<6>/NET38 1 2 vss!
r4 1 2 25.1852
.ends

.subckt PM_REGISTER_FILE_NEW%XI20<10>/XI16/XS0C<5>/BIT 2 5 14 15 19 vss!
c0 10 vss! 0.0296791f
r1 15 18 12.5926
r2 14 18 12.5926
r3 10 19 22.2222
r4 10 18 52.433
r5 5 10 251.183
r6 2 5 250.958
.ends

.subckt PM_REGISTER_FILE_NEW%XI20<10>/XI16/XS0C<5>/NET38 1 2 vss!
r4 1 2 25.1852
.ends

.subckt PM_REGISTER_FILE_NEW%XI20<10>/XI16/XS0C<4>/BIT 2 5 14 15 19 vss!
c0 10 vss! 0.0299452f
r1 15 18 12.5926
r2 14 18 12.5926
r3 10 19 22.2222
r4 10 18 52.433
r5 5 10 251.183
r6 2 5 250.958
.ends

.subckt PM_REGISTER_FILE_NEW%XI20<10>/XI16/XS0C<4>/NET38 1 2 vss!
r4 1 2 25.1852
.ends

.subckt PM_REGISTER_FILE_NEW%XI20<10>/XI16/XS0C<3>/BIT 2 5 14 15 19 vss!
c0 10 vss! 0.0299452f
r1 15 18 12.5926
r2 14 18 12.5926
r3 10 19 22.2222
r4 10 18 52.433
r5 5 10 251.183
r6 2 5 250.958
.ends

.subckt PM_REGISTER_FILE_NEW%XI20<10>/XI16/XS0C<3>/NET38 1 2 vss!
r4 1 2 25.1852
.ends

.subckt PM_REGISTER_FILE_NEW%XI20<10>/XI16/XS0C<2>/BIT 2 5 14 15 19 vss!
c0 10 vss! 0.0299452f
r1 15 18 12.5926
r2 14 18 12.5926
r3 10 19 22.2222
r4 10 18 52.433
r5 5 10 251.183
r6 2 5 250.958
.ends

.subckt PM_REGISTER_FILE_NEW%XI20<10>/XI16/XS0C<2>/NET38 1 2 vss!
r4 1 2 25.1852
.ends

.subckt PM_REGISTER_FILE_NEW%XI20<10>/XI16/XS0C<1>/BIT 2 5 14 15 19 vss!
c0 10 vss! 0.0299452f
r1 15 18 12.5926
r2 14 18 12.5926
r3 10 19 22.2222
r4 10 18 52.433
r5 5 10 251.183
r6 2 5 250.958
.ends

.subckt PM_REGISTER_FILE_NEW%XI20<10>/XI16/XS0C<1>/NET38 1 2 vss!
r4 1 2 25.1852
.ends

.subckt PM_REGISTER_FILE_NEW%XI20<10>/XI16/XS0C<0>/BIT 2 5 14 15 19 vss!
c0 10 vss! 0.0299489f
r1 15 18 12.5926
r2 14 18 12.5926
r3 10 19 22.2222
r4 10 18 52.433
r5 5 10 251.183
r6 2 5 250.958
.ends

.subckt PM_REGISTER_FILE_NEW%XI20<10>/XI16/XS0C<0>/NET38 1 2 vss!
r4 1 2 25.1852
.ends

.subckt PM_REGISTER_FILE_NEW%XI20<10>/XI15/XS0C<7>/BIT 2 5 14 15 19 vss!
c0 10 vss! 0.030215f
r1 15 18 12.5926
r2 14 18 12.5926
r3 10 19 22.2222
r4 10 18 52.433
r5 5 10 251.183
r6 2 5 250.958
.ends

.subckt PM_REGISTER_FILE_NEW%XI20<10>/XI15/XS0C<7>/NET38 1 2 vss!
r4 1 2 25.1852
.ends

.subckt PM_REGISTER_FILE_NEW%XI20<10>/XI15/XS0C<6>/BIT 2 5 14 15 19 vss!
c0 10 vss! 0.0299452f
r1 15 18 12.5926
r2 14 18 12.5926
r3 10 19 22.2222
r4 10 18 52.433
r5 5 10 251.183
r6 2 5 250.958
.ends

.subckt PM_REGISTER_FILE_NEW%XI20<10>/XI15/XS0C<6>/NET38 1 2 vss!
r4 1 2 25.1852
.ends

.subckt PM_REGISTER_FILE_NEW%XI20<10>/XI15/XS0C<5>/BIT 2 5 14 15 19 vss!
c0 10 vss! 0.0299452f
r1 15 18 12.5926
r2 14 18 12.5926
r3 10 19 22.2222
r4 10 18 52.433
r5 5 10 251.183
r6 2 5 250.958
.ends

.subckt PM_REGISTER_FILE_NEW%XI20<10>/XI15/XS0C<5>/NET38 1 2 vss!
r4 1 2 25.1852
.ends

.subckt PM_REGISTER_FILE_NEW%XI20<10>/XI15/XS0C<4>/BIT 2 5 14 15 19 vss!
c0 10 vss! 0.0296791f
r1 15 18 12.5926
r2 14 18 12.5926
r3 10 19 22.2222
r4 10 18 52.433
r5 5 10 251.183
r6 2 5 250.958
.ends

.subckt PM_REGISTER_FILE_NEW%XI20<10>/XI15/XS0C<4>/NET38 1 2 vss!
r4 1 2 25.1852
.ends

.subckt PM_REGISTER_FILE_NEW%XI20<10>/XI15/XS0C<3>/BIT 2 5 14 15 19 vss!
c0 10 vss! 0.029898f
r1 15 18 12.5926
r2 14 18 12.5926
r3 10 19 22.2222
r4 10 18 52.433
r5 5 10 251.183
r6 2 5 250.958
.ends

.subckt PM_REGISTER_FILE_NEW%XI20<10>/XI15/XS0C<3>/NET38 1 2 vss!
r4 1 2 25.1852
.ends

.subckt PM_REGISTER_FILE_NEW%XI20<10>/XI15/XS0C<2>/BIT 2 5 14 15 19 vss!
c0 10 vss! 0.0296319f
r1 15 18 12.5926
r2 14 18 12.5926
r3 10 19 22.2222
r4 10 18 52.433
r5 5 10 251.183
r6 2 5 250.958
.ends

.subckt PM_REGISTER_FILE_NEW%XI20<10>/XI15/XS0C<2>/NET38 1 2 vss!
r4 1 2 25.1852
.ends

.subckt PM_REGISTER_FILE_NEW%XI20<10>/XI15/XS0C<1>/BIT 2 5 14 15 19 vss!
c0 10 vss! 0.0296319f
r1 15 18 12.5926
r2 14 18 12.5926
r3 10 19 22.2222
r4 10 18 52.433
r5 5 10 251.183
r6 2 5 250.958
.ends

.subckt PM_REGISTER_FILE_NEW%XI20<10>/XI15/XS0C<1>/NET38 1 2 vss!
r4 1 2 25.1852
.ends

.subckt PM_REGISTER_FILE_NEW%XI20<10>/XI15/XS0C<0>/BIT 2 5 14 15 19 vss!
c0 10 vss! 0.0299489f
r1 15 18 12.5926
r2 14 18 12.5926
r3 10 19 22.2222
r4 10 18 52.433
r5 5 10 251.183
r6 2 5 250.958
.ends

.subckt PM_REGISTER_FILE_NEW%XI20<10>/XI15/XS0C<0>/NET38 1 2 vss!
r4 1 2 25.1852
.ends

.subckt PM_REGISTER_FILE_NEW%XI20<11>/XI16/XS0C<7>/BIT 2 5 14 15 19 vss!
c0 10 vss! 0.030215f
r1 15 18 12.5926
r2 14 18 12.5926
r3 10 19 22.2222
r4 10 18 52.433
r5 5 10 251.183
r6 2 5 250.958
.ends

.subckt PM_REGISTER_FILE_NEW%XI20<11>/XI16/XS0C<7>/NET38 1 2 vss!
r4 1 2 25.1852
.ends

.subckt PM_REGISTER_FILE_NEW%XI20<11>/XI16/XS0C<6>/BIT 2 5 14 15 19 vss!
c0 10 vss! 0.029898f
r1 15 18 12.5926
r2 14 18 12.5926
r3 10 19 22.2222
r4 10 18 52.433
r5 5 10 251.183
r6 2 5 250.958
.ends

.subckt PM_REGISTER_FILE_NEW%XI20<11>/XI16/XS0C<6>/NET38 1 2 vss!
r4 1 2 25.1852
.ends

.subckt PM_REGISTER_FILE_NEW%XI20<11>/XI16/XS0C<5>/BIT 2 5 14 15 19 vss!
c0 10 vss! 0.0296791f
r1 15 18 12.5926
r2 14 18 12.5926
r3 10 19 22.2222
r4 10 18 52.433
r5 5 10 251.183
r6 2 5 250.958
.ends

.subckt PM_REGISTER_FILE_NEW%XI20<11>/XI16/XS0C<5>/NET38 1 2 vss!
r4 1 2 25.1852
.ends

.subckt PM_REGISTER_FILE_NEW%XI20<11>/XI16/XS0C<4>/BIT 2 5 14 15 19 vss!
c0 10 vss! 0.0299452f
r1 15 18 12.5926
r2 14 18 12.5926
r3 10 19 22.2222
r4 10 18 52.433
r5 5 10 251.183
r6 2 5 250.958
.ends

.subckt PM_REGISTER_FILE_NEW%XI20<11>/XI16/XS0C<4>/NET38 1 2 vss!
r4 1 2 25.1852
.ends

.subckt PM_REGISTER_FILE_NEW%XI20<11>/XI16/XS0C<3>/BIT 2 5 14 15 19 vss!
c0 10 vss! 0.0299452f
r1 15 18 12.5926
r2 14 18 12.5926
r3 10 19 22.2222
r4 10 18 52.433
r5 5 10 251.183
r6 2 5 250.958
.ends

.subckt PM_REGISTER_FILE_NEW%XI20<11>/XI16/XS0C<3>/NET38 1 2 vss!
r4 1 2 25.1852
.ends

.subckt PM_REGISTER_FILE_NEW%XI20<11>/XI16/XS0C<2>/BIT 2 5 14 15 19 vss!
c0 10 vss! 0.0299452f
r1 15 18 12.5926
r2 14 18 12.5926
r3 10 19 22.2222
r4 10 18 52.433
r5 5 10 251.183
r6 2 5 250.958
.ends

.subckt PM_REGISTER_FILE_NEW%XI20<11>/XI16/XS0C<2>/NET38 1 2 vss!
r4 1 2 25.1852
.ends

.subckt PM_REGISTER_FILE_NEW%XI20<11>/XI16/XS0C<1>/BIT 2 5 14 15 19 vss!
c0 10 vss! 0.0299452f
r1 15 18 12.5926
r2 14 18 12.5926
r3 10 19 22.2222
r4 10 18 52.433
r5 5 10 251.183
r6 2 5 250.958
.ends

.subckt PM_REGISTER_FILE_NEW%XI20<11>/XI16/XS0C<1>/NET38 1 2 vss!
r4 1 2 25.1852
.ends

.subckt PM_REGISTER_FILE_NEW%XI20<11>/XI16/XS0C<0>/BIT 2 5 14 15 19 vss!
c0 10 vss! 0.0299489f
r1 15 18 12.5926
r2 14 18 12.5926
r3 10 19 22.2222
r4 10 18 52.433
r5 5 10 251.183
r6 2 5 250.958
.ends

.subckt PM_REGISTER_FILE_NEW%XI20<11>/XI16/XS0C<0>/NET38 1 2 vss!
r4 1 2 25.1852
.ends

.subckt PM_REGISTER_FILE_NEW%XI20<11>/XI15/XS0C<7>/BIT 2 5 14 15 19 vss!
c0 10 vss! 0.030215f
r1 15 18 12.5926
r2 14 18 12.5926
r3 10 19 22.2222
r4 10 18 52.433
r5 5 10 251.183
r6 2 5 250.958
.ends

.subckt PM_REGISTER_FILE_NEW%XI20<11>/XI15/XS0C<7>/NET38 1 2 vss!
r4 1 2 25.1852
.ends

.subckt PM_REGISTER_FILE_NEW%XI20<11>/XI15/XS0C<6>/BIT 2 5 14 15 19 vss!
c0 10 vss! 0.0299452f
r1 15 18 12.5926
r2 14 18 12.5926
r3 10 19 22.2222
r4 10 18 52.433
r5 5 10 251.183
r6 2 5 250.958
.ends

.subckt PM_REGISTER_FILE_NEW%XI20<11>/XI15/XS0C<6>/NET38 1 2 vss!
r4 1 2 25.1852
.ends

.subckt PM_REGISTER_FILE_NEW%XI20<11>/XI15/XS0C<5>/BIT 2 5 14 15 19 vss!
c0 10 vss! 0.0299452f
r1 15 18 12.5926
r2 14 18 12.5926
r3 10 19 22.2222
r4 10 18 52.433
r5 5 10 251.183
r6 2 5 250.958
.ends

.subckt PM_REGISTER_FILE_NEW%XI20<11>/XI15/XS0C<5>/NET38 1 2 vss!
r4 1 2 25.1852
.ends

.subckt PM_REGISTER_FILE_NEW%XI20<11>/XI15/XS0C<4>/BIT 2 5 14 15 19 vss!
c0 10 vss! 0.0296791f
r1 15 18 12.5926
r2 14 18 12.5926
r3 10 19 22.2222
r4 10 18 52.433
r5 5 10 251.183
r6 2 5 250.958
.ends

.subckt PM_REGISTER_FILE_NEW%XI20<11>/XI15/XS0C<4>/NET38 1 2 vss!
r4 1 2 25.1852
.ends

.subckt PM_REGISTER_FILE_NEW%XI20<11>/XI15/XS0C<3>/BIT 2 5 14 15 19 vss!
c0 10 vss! 0.029898f
r1 15 18 12.5926
r2 14 18 12.5926
r3 10 19 22.2222
r4 10 18 52.433
r5 5 10 251.183
r6 2 5 250.958
.ends

.subckt PM_REGISTER_FILE_NEW%XI20<11>/XI15/XS0C<3>/NET38 1 2 vss!
r4 1 2 25.1852
.ends

.subckt PM_REGISTER_FILE_NEW%XI20<11>/XI15/XS0C<2>/BIT 2 5 14 15 19 vss!
c0 10 vss! 0.0296319f
r1 15 18 12.5926
r2 14 18 12.5926
r3 10 19 22.2222
r4 10 18 52.433
r5 5 10 251.183
r6 2 5 250.958
.ends

.subckt PM_REGISTER_FILE_NEW%XI20<11>/XI15/XS0C<2>/NET38 1 2 vss!
r4 1 2 25.1852
.ends

.subckt PM_REGISTER_FILE_NEW%XI20<11>/XI15/XS0C<1>/BIT 2 5 14 15 19 vss!
c0 10 vss! 0.0296319f
r1 15 18 12.5926
r2 14 18 12.5926
r3 10 19 22.2222
r4 10 18 52.433
r5 5 10 251.183
r6 2 5 250.958
.ends

.subckt PM_REGISTER_FILE_NEW%XI20<11>/XI15/XS0C<1>/NET38 1 2 vss!
r4 1 2 25.1852
.ends

.subckt PM_REGISTER_FILE_NEW%XI20<11>/XI15/XS0C<0>/BIT 2 5 14 15 19 vss!
c0 10 vss! 0.0299489f
r1 15 18 12.5926
r2 14 18 12.5926
r3 10 19 22.2222
r4 10 18 52.433
r5 5 10 251.183
r6 2 5 250.958
.ends

.subckt PM_REGISTER_FILE_NEW%XI20<11>/XI15/XS0C<0>/NET38 1 2 vss!
r4 1 2 25.1852
.ends

.subckt PM_REGISTER_FILE_NEW%XI20<12>/XI16/XS0C<7>/BIT 2 5 14 15 19 vss!
c0 10 vss! 0.030215f
r1 15 18 12.5926
r2 14 18 12.5926
r3 10 19 22.2222
r4 10 18 52.433
r5 5 10 251.183
r6 2 5 250.958
.ends

.subckt PM_REGISTER_FILE_NEW%XI20<12>/XI16/XS0C<7>/NET38 1 2 vss!
r4 1 2 25.1852
.ends

.subckt PM_REGISTER_FILE_NEW%XI20<12>/XI16/XS0C<6>/BIT 2 5 14 15 19 vss!
c0 10 vss! 0.029898f
r1 15 18 12.5926
r2 14 18 12.5926
r3 10 19 22.2222
r4 10 18 52.433
r5 5 10 251.183
r6 2 5 250.958
.ends

.subckt PM_REGISTER_FILE_NEW%XI20<12>/XI16/XS0C<6>/NET38 1 2 vss!
r4 1 2 25.1852
.ends

.subckt PM_REGISTER_FILE_NEW%XI20<12>/XI16/XS0C<5>/BIT 2 5 14 15 19 vss!
c0 10 vss! 0.0296791f
r1 15 18 12.5926
r2 14 18 12.5926
r3 10 19 22.2222
r4 10 18 52.433
r5 5 10 251.183
r6 2 5 250.958
.ends

.subckt PM_REGISTER_FILE_NEW%XI20<12>/XI16/XS0C<5>/NET38 1 2 vss!
r4 1 2 25.1852
.ends

.subckt PM_REGISTER_FILE_NEW%XI20<12>/XI16/XS0C<4>/BIT 2 5 14 15 19 vss!
c0 10 vss! 0.0299452f
r1 15 18 12.5926
r2 14 18 12.5926
r3 10 19 22.2222
r4 10 18 52.433
r5 5 10 251.183
r6 2 5 250.958
.ends

.subckt PM_REGISTER_FILE_NEW%XI20<12>/XI16/XS0C<4>/NET38 1 2 vss!
r4 1 2 25.1852
.ends

.subckt PM_REGISTER_FILE_NEW%XI20<12>/XI16/XS0C<3>/BIT 2 5 14 15 19 vss!
c0 10 vss! 0.0299452f
r1 15 18 12.5926
r2 14 18 12.5926
r3 10 19 22.2222
r4 10 18 52.433
r5 5 10 251.183
r6 2 5 250.958
.ends

.subckt PM_REGISTER_FILE_NEW%XI20<12>/XI16/XS0C<3>/NET38 1 2 vss!
r4 1 2 25.1852
.ends

.subckt PM_REGISTER_FILE_NEW%XI20<12>/XI16/XS0C<2>/BIT 2 5 14 15 19 vss!
c0 10 vss! 0.0299452f
r1 15 18 12.5926
r2 14 18 12.5926
r3 10 19 22.2222
r4 10 18 52.433
r5 5 10 251.183
r6 2 5 250.958
.ends

.subckt PM_REGISTER_FILE_NEW%XI20<12>/XI16/XS0C<2>/NET38 1 2 vss!
r4 1 2 25.1852
.ends

.subckt PM_REGISTER_FILE_NEW%XI20<12>/XI16/XS0C<1>/BIT 2 5 14 15 19 vss!
c0 10 vss! 0.0299452f
r1 15 18 12.5926
r2 14 18 12.5926
r3 10 19 22.2222
r4 10 18 52.433
r5 5 10 251.183
r6 2 5 250.958
.ends

.subckt PM_REGISTER_FILE_NEW%XI20<12>/XI16/XS0C<1>/NET38 1 2 vss!
r4 1 2 25.1852
.ends

.subckt PM_REGISTER_FILE_NEW%XI20<12>/XI16/XS0C<0>/BIT 2 5 14 15 19 vss!
c0 10 vss! 0.0299489f
r1 15 18 12.5926
r2 14 18 12.5926
r3 10 19 22.2222
r4 10 18 52.433
r5 5 10 251.183
r6 2 5 250.958
.ends

.subckt PM_REGISTER_FILE_NEW%XI20<12>/XI16/XS0C<0>/NET38 1 2 vss!
r4 1 2 25.1852
.ends

.subckt PM_REGISTER_FILE_NEW%XI20<12>/XI15/XS0C<7>/BIT 2 5 14 15 19 vss!
c0 10 vss! 0.030215f
r1 15 18 12.5926
r2 14 18 12.5926
r3 10 19 22.2222
r4 10 18 52.433
r5 5 10 251.183
r6 2 5 250.958
.ends

.subckt PM_REGISTER_FILE_NEW%XI20<12>/XI15/XS0C<7>/NET38 1 2 vss!
r4 1 2 25.1852
.ends

.subckt PM_REGISTER_FILE_NEW%XI20<12>/XI15/XS0C<6>/BIT 2 5 14 15 19 vss!
c0 10 vss! 0.0299452f
r1 15 18 12.5926
r2 14 18 12.5926
r3 10 19 22.2222
r4 10 18 52.433
r5 5 10 251.183
r6 2 5 250.958
.ends

.subckt PM_REGISTER_FILE_NEW%XI20<12>/XI15/XS0C<6>/NET38 1 2 vss!
r4 1 2 25.1852
.ends

.subckt PM_REGISTER_FILE_NEW%XI20<12>/XI15/XS0C<5>/BIT 2 5 14 15 19 vss!
c0 10 vss! 0.0299452f
r1 15 18 12.5926
r2 14 18 12.5926
r3 10 19 22.2222
r4 10 18 52.433
r5 5 10 251.183
r6 2 5 250.958
.ends

.subckt PM_REGISTER_FILE_NEW%XI20<12>/XI15/XS0C<5>/NET38 1 2 vss!
r4 1 2 25.1852
.ends

.subckt PM_REGISTER_FILE_NEW%XI20<12>/XI15/XS0C<4>/BIT 2 5 14 15 19 vss!
c0 10 vss! 0.0296791f
r1 15 18 12.5926
r2 14 18 12.5926
r3 10 19 22.2222
r4 10 18 52.433
r5 5 10 251.183
r6 2 5 250.958
.ends

.subckt PM_REGISTER_FILE_NEW%XI20<12>/XI15/XS0C<4>/NET38 1 2 vss!
r4 1 2 25.1852
.ends

.subckt PM_REGISTER_FILE_NEW%XI20<12>/XI15/XS0C<3>/BIT 2 5 14 15 19 vss!
c0 10 vss! 0.029898f
r1 15 18 12.5926
r2 14 18 12.5926
r3 10 19 22.2222
r4 10 18 52.433
r5 5 10 251.183
r6 2 5 250.958
.ends

.subckt PM_REGISTER_FILE_NEW%XI20<12>/XI15/XS0C<3>/NET38 1 2 vss!
r4 1 2 25.1852
.ends

.subckt PM_REGISTER_FILE_NEW%XI20<12>/XI15/XS0C<2>/BIT 2 5 14 15 19 vss!
c0 10 vss! 0.0296319f
r1 15 18 12.5926
r2 14 18 12.5926
r3 10 19 22.2222
r4 10 18 52.433
r5 5 10 251.183
r6 2 5 250.958
.ends

.subckt PM_REGISTER_FILE_NEW%XI20<12>/XI15/XS0C<2>/NET38 1 2 vss!
r4 1 2 25.1852
.ends

.subckt PM_REGISTER_FILE_NEW%XI20<12>/XI15/XS0C<1>/BIT 2 5 14 15 19 vss!
c0 10 vss! 0.0296319f
r1 15 18 12.5926
r2 14 18 12.5926
r3 10 19 22.2222
r4 10 18 52.433
r5 5 10 251.183
r6 2 5 250.958
.ends

.subckt PM_REGISTER_FILE_NEW%XI20<12>/XI15/XS0C<1>/NET38 1 2 vss!
r4 1 2 25.1852
.ends

.subckt PM_REGISTER_FILE_NEW%XI20<12>/XI15/XS0C<0>/BIT 2 5 14 15 19 vss!
c0 10 vss! 0.0299489f
r1 15 18 12.5926
r2 14 18 12.5926
r3 10 19 22.2222
r4 10 18 52.433
r5 5 10 251.183
r6 2 5 250.958
.ends

.subckt PM_REGISTER_FILE_NEW%XI20<12>/XI15/XS0C<0>/NET38 1 2 vss!
r4 1 2 25.1852
.ends

.subckt PM_REGISTER_FILE_NEW%XI20<13>/XI16/XS0C<7>/BIT 2 5 14 15 19 vss!
c0 10 vss! 0.030215f
r1 15 18 12.5926
r2 14 18 12.5926
r3 10 19 22.2222
r4 10 18 52.433
r5 5 10 251.183
r6 2 5 250.958
.ends

.subckt PM_REGISTER_FILE_NEW%XI20<13>/XI16/XS0C<7>/NET38 1 2 vss!
r4 1 2 25.1852
.ends

.subckt PM_REGISTER_FILE_NEW%XI20<13>/XI16/XS0C<6>/BIT 2 5 14 15 19 vss!
c0 10 vss! 0.029898f
r1 15 18 12.5926
r2 14 18 12.5926
r3 10 19 22.2222
r4 10 18 52.433
r5 5 10 251.183
r6 2 5 250.958
.ends

.subckt PM_REGISTER_FILE_NEW%XI20<13>/XI16/XS0C<6>/NET38 1 2 vss!
r4 1 2 25.1852
.ends

.subckt PM_REGISTER_FILE_NEW%XI20<13>/XI16/XS0C<5>/BIT 2 5 14 15 19 vss!
c0 10 vss! 0.0296791f
r1 15 18 12.5926
r2 14 18 12.5926
r3 10 19 22.2222
r4 10 18 52.433
r5 5 10 251.183
r6 2 5 250.958
.ends

.subckt PM_REGISTER_FILE_NEW%XI20<13>/XI16/XS0C<5>/NET38 1 2 vss!
r4 1 2 25.1852
.ends

.subckt PM_REGISTER_FILE_NEW%XI20<13>/XI16/XS0C<4>/BIT 2 5 14 15 19 vss!
c0 10 vss! 0.0299452f
r1 15 18 12.5926
r2 14 18 12.5926
r3 10 19 22.2222
r4 10 18 52.433
r5 5 10 251.183
r6 2 5 250.958
.ends

.subckt PM_REGISTER_FILE_NEW%XI20<13>/XI16/XS0C<4>/NET38 1 2 vss!
r4 1 2 25.1852
.ends

.subckt PM_REGISTER_FILE_NEW%XI20<13>/XI16/XS0C<3>/BIT 2 5 14 15 19 vss!
c0 10 vss! 0.0299452f
r1 15 18 12.5926
r2 14 18 12.5926
r3 10 19 22.2222
r4 10 18 52.433
r5 5 10 251.183
r6 2 5 250.958
.ends

.subckt PM_REGISTER_FILE_NEW%XI20<13>/XI16/XS0C<3>/NET38 1 2 vss!
r4 1 2 25.1852
.ends

.subckt PM_REGISTER_FILE_NEW%XI20<13>/XI16/XS0C<2>/BIT 2 5 14 15 19 vss!
c0 10 vss! 0.0299452f
r1 15 18 12.5926
r2 14 18 12.5926
r3 10 19 22.2222
r4 10 18 52.433
r5 5 10 251.183
r6 2 5 250.958
.ends

.subckt PM_REGISTER_FILE_NEW%XI20<13>/XI16/XS0C<2>/NET38 1 2 vss!
r4 1 2 25.1852
.ends

.subckt PM_REGISTER_FILE_NEW%XI20<13>/XI16/XS0C<1>/BIT 2 5 14 15 19 vss!
c0 10 vss! 0.0299452f
r1 15 18 12.5926
r2 14 18 12.5926
r3 10 19 22.2222
r4 10 18 52.433
r5 5 10 251.183
r6 2 5 250.958
.ends

.subckt PM_REGISTER_FILE_NEW%XI20<13>/XI16/XS0C<1>/NET38 1 2 vss!
r4 1 2 25.1852
.ends

.subckt PM_REGISTER_FILE_NEW%XI20<13>/XI16/XS0C<0>/BIT 2 5 14 15 19 vss!
c0 10 vss! 0.0299489f
r1 15 18 12.5926
r2 14 18 12.5926
r3 10 19 22.2222
r4 10 18 52.433
r5 5 10 251.183
r6 2 5 250.958
.ends

.subckt PM_REGISTER_FILE_NEW%XI20<13>/XI16/XS0C<0>/NET38 1 2 vss!
r4 1 2 25.1852
.ends

.subckt PM_REGISTER_FILE_NEW%XI20<13>/XI15/XS0C<7>/BIT 2 5 14 15 19 vss!
c0 10 vss! 0.030215f
r1 15 18 12.5926
r2 14 18 12.5926
r3 10 19 22.2222
r4 10 18 52.433
r5 5 10 251.183
r6 2 5 250.958
.ends

.subckt PM_REGISTER_FILE_NEW%XI20<13>/XI15/XS0C<7>/NET38 1 2 vss!
r4 1 2 25.1852
.ends

.subckt PM_REGISTER_FILE_NEW%XI20<13>/XI15/XS0C<6>/BIT 2 5 14 15 19 vss!
c0 10 vss! 0.0299452f
r1 15 18 12.5926
r2 14 18 12.5926
r3 10 19 22.2222
r4 10 18 52.433
r5 5 10 251.183
r6 2 5 250.958
.ends

.subckt PM_REGISTER_FILE_NEW%XI20<13>/XI15/XS0C<6>/NET38 1 2 vss!
r4 1 2 25.1852
.ends

.subckt PM_REGISTER_FILE_NEW%XI20<13>/XI15/XS0C<5>/BIT 2 5 14 15 19 vss!
c0 10 vss! 0.0299452f
r1 15 18 12.5926
r2 14 18 12.5926
r3 10 19 22.2222
r4 10 18 52.433
r5 5 10 251.183
r6 2 5 250.958
.ends

.subckt PM_REGISTER_FILE_NEW%XI20<13>/XI15/XS0C<5>/NET38 1 2 vss!
r4 1 2 25.1852
.ends

.subckt PM_REGISTER_FILE_NEW%XI20<13>/XI15/XS0C<4>/BIT 2 5 14 15 19 vss!
c0 10 vss! 0.0296791f
r1 15 18 12.5926
r2 14 18 12.5926
r3 10 19 22.2222
r4 10 18 52.433
r5 5 10 251.183
r6 2 5 250.958
.ends

.subckt PM_REGISTER_FILE_NEW%XI20<13>/XI15/XS0C<4>/NET38 1 2 vss!
r4 1 2 25.1852
.ends

.subckt PM_REGISTER_FILE_NEW%XI20<13>/XI15/XS0C<3>/BIT 2 5 14 15 19 vss!
c0 10 vss! 0.029898f
r1 15 18 12.5926
r2 14 18 12.5926
r3 10 19 22.2222
r4 10 18 52.433
r5 5 10 251.183
r6 2 5 250.958
.ends

.subckt PM_REGISTER_FILE_NEW%XI20<13>/XI15/XS0C<3>/NET38 1 2 vss!
r4 1 2 25.1852
.ends

.subckt PM_REGISTER_FILE_NEW%XI20<13>/XI15/XS0C<2>/BIT 2 5 14 15 19 vss!
c0 10 vss! 0.0296319f
r1 15 18 12.5926
r2 14 18 12.5926
r3 10 19 22.2222
r4 10 18 52.433
r5 5 10 251.183
r6 2 5 250.958
.ends

.subckt PM_REGISTER_FILE_NEW%XI20<13>/XI15/XS0C<2>/NET38 1 2 vss!
r4 1 2 25.1852
.ends

.subckt PM_REGISTER_FILE_NEW%XI20<13>/XI15/XS0C<1>/BIT 2 5 14 15 19 vss!
c0 10 vss! 0.0296319f
r1 15 18 12.5926
r2 14 18 12.5926
r3 10 19 22.2222
r4 10 18 52.433
r5 5 10 251.183
r6 2 5 250.958
.ends

.subckt PM_REGISTER_FILE_NEW%XI20<13>/XI15/XS0C<1>/NET38 1 2 vss!
r4 1 2 25.1852
.ends

.subckt PM_REGISTER_FILE_NEW%XI20<13>/XI15/XS0C<0>/BIT 2 5 14 15 19 vss!
c0 10 vss! 0.0299489f
r1 15 18 12.5926
r2 14 18 12.5926
r3 10 19 22.2222
r4 10 18 52.433
r5 5 10 251.183
r6 2 5 250.958
.ends

.subckt PM_REGISTER_FILE_NEW%XI20<13>/XI15/XS0C<0>/NET38 1 2 vss!
r4 1 2 25.1852
.ends

.subckt PM_REGISTER_FILE_NEW%XI20<14>/XI16/XS0C<7>/BIT 2 5 14 15 19 vss!
c0 10 vss! 0.030215f
r1 15 18 12.5926
r2 14 18 12.5926
r3 10 19 22.2222
r4 10 18 52.433
r5 5 10 251.183
r6 2 5 250.958
.ends

.subckt PM_REGISTER_FILE_NEW%XI20<14>/XI16/XS0C<7>/NET38 1 2 vss!
r4 1 2 25.1852
.ends

.subckt PM_REGISTER_FILE_NEW%XI20<14>/XI16/XS0C<6>/BIT 2 5 14 15 19 vss!
c0 10 vss! 0.029898f
r1 15 18 12.5926
r2 14 18 12.5926
r3 10 19 22.2222
r4 10 18 52.433
r5 5 10 251.183
r6 2 5 250.958
.ends

.subckt PM_REGISTER_FILE_NEW%XI20<14>/XI16/XS0C<6>/NET38 1 2 vss!
r4 1 2 25.1852
.ends

.subckt PM_REGISTER_FILE_NEW%XI20<14>/XI16/XS0C<5>/BIT 2 5 14 15 19 vss!
c0 10 vss! 0.0296791f
r1 15 18 12.5926
r2 14 18 12.5926
r3 10 19 22.2222
r4 10 18 52.433
r5 5 10 251.183
r6 2 5 250.958
.ends

.subckt PM_REGISTER_FILE_NEW%XI20<14>/XI16/XS0C<5>/NET38 1 2 vss!
r4 1 2 25.1852
.ends

.subckt PM_REGISTER_FILE_NEW%XI20<14>/XI16/XS0C<4>/BIT 2 5 14 15 19 vss!
c0 10 vss! 0.0299452f
r1 15 18 12.5926
r2 14 18 12.5926
r3 10 19 22.2222
r4 10 18 52.433
r5 5 10 251.183
r6 2 5 250.958
.ends

.subckt PM_REGISTER_FILE_NEW%XI20<14>/XI16/XS0C<4>/NET38 1 2 vss!
r4 1 2 25.1852
.ends

.subckt PM_REGISTER_FILE_NEW%XI20<14>/XI16/XS0C<3>/BIT 2 5 14 15 19 vss!
c0 10 vss! 0.0299452f
r1 15 18 12.5926
r2 14 18 12.5926
r3 10 19 22.2222
r4 10 18 52.433
r5 5 10 251.183
r6 2 5 250.958
.ends

.subckt PM_REGISTER_FILE_NEW%XI20<14>/XI16/XS0C<3>/NET38 1 2 vss!
r4 1 2 25.1852
.ends

.subckt PM_REGISTER_FILE_NEW%XI20<14>/XI16/XS0C<2>/BIT 2 5 14 15 19 vss!
c0 10 vss! 0.0299452f
r1 15 18 12.5926
r2 14 18 12.5926
r3 10 19 22.2222
r4 10 18 52.433
r5 5 10 251.183
r6 2 5 250.958
.ends

.subckt PM_REGISTER_FILE_NEW%XI20<14>/XI16/XS0C<2>/NET38 1 2 vss!
r4 1 2 25.1852
.ends

.subckt PM_REGISTER_FILE_NEW%XI20<14>/XI16/XS0C<1>/BIT 2 5 14 15 19 vss!
c0 10 vss! 0.0299452f
r1 15 18 12.5926
r2 14 18 12.5926
r3 10 19 22.2222
r4 10 18 52.433
r5 5 10 251.183
r6 2 5 250.958
.ends

.subckt PM_REGISTER_FILE_NEW%XI20<14>/XI16/XS0C<1>/NET38 1 2 vss!
r4 1 2 25.1852
.ends

.subckt PM_REGISTER_FILE_NEW%XI20<14>/XI16/XS0C<0>/BIT 2 5 14 15 19 vss!
c0 10 vss! 0.0299489f
r1 15 18 12.5926
r2 14 18 12.5926
r3 10 19 22.2222
r4 10 18 52.433
r5 5 10 251.183
r6 2 5 250.958
.ends
